data_vida_c_p01                       
_audit_creation_date               2023-01-13 
_audit_creation_method
;
Olex2 1.3
(compiled 2020.11.12 svn.r5f609507 for OlexSys, GUI svn.r6408)
;
_shelx_SHELXL_version_number       '2018/3'
_audit_contact_author_address      ?
_audit_contact_author_email        ?
_audit_contact_author_name         ''
_audit_contact_author_phone        ?
_publ_contact_author_id_orcid      ?
_publ_section_references
;
Dolomanov, O.V., Bourhis, L.J., Gildea, R.J, Howard, J.A.K. & Puschmann, H.
 (2009), J. Appl. Cryst. 42, 339-341.

Sheldrick, G.M. (2015). Acta Cryst. C71, 3-8.
;
_chemical_name_common              ?
_chemical_name_systematic          ?
_chemical_formula_moiety           'C10 H13 N5 O4'
_chemical_formula_sum              'C10 H13 N5 O4'
_chemical_formula_weight           267.25
_chemical_absolute_configuration   ?
_chemical_melting_point            ?
_chemical_oxdiff_formula           'C10  H13 N5 O4'
loop_ 
  _atom_type_symbol
  _atom_type_description
  _atom_type_scat_dispersion_real
  _atom_type_scat_dispersion_imag
  _atom_type_scat_source
 'C' 'C' -0.0020 0.0002 'International Tables Vol C Tables 4.2.6.8 and 6.1.1.4'
 'H' 'H' 0.0000 0.0000 'International Tables Vol C Tables 4.2.6.8 and 6.1.1.4'
 'N' 'N' -0.0032 0.0004 'International Tables Vol C Tables 4.2.6.8 and 6.1.1.4'
 'O' 'O' -0.0040 0.0008 'International Tables Vol C Tables 4.2.6.8 and 6.1.1.4'

_shelx_space_group_comment
;
The symmetry employed for this shelxl refinement is uniquely defined
by the following loop, which should always be used as a source of
symmetry information in preference to the above space-group names.
They are only intended as comments.
;
_space_group_crystal_system        'orthorhombic'
_space_group_IT_number             19
_space_group_name_H-M_alt          'P 21 21 21'
_space_group_name_Hall             'P 2ac 2ab'
loop_
  _space_group_symop_operation_xyz
 'x, y, z'
 'x+1/2, -y+1/2, -z'
 '-x, y+1/2, -z+1/2'
 '-x+1/2, -y, z+1/2'

_cell_length_a                     9.0331(4)
_cell_length_b                     10.3956(6)
_cell_length_c                     21.409(2)
_cell_angle_alpha                  90
_cell_angle_beta                   90
_cell_angle_gamma                  90
_cell_volume                       1120.20(16)
_cell_formula_units_Z              4
_cell_measurement_reflns_used      1053
_cell_measurement_temperature      293(2)
_cell_measurement_theta_max        10.4210
_cell_measurement_theta_min        1.5960
_shelx_estimated_absorpt_T_max     ?
_shelx_estimated_absorpt_T_min     ?
_exptl_absorpt_coefficient_mu      0.035
_exptl_absorpt_correction_T_max    1.00000
_exptl_absorpt_correction_T_min    0.15055
_exptl_absorpt_correction_type     multi-scan
_exptl_absorpt_process_details
;
CrysAlisPro 1.171.40.84a (Rigaku Oxford Diffraction, 2020)
Empirical absorption correction using spherical harmonics,
implemented in SCALE3 ABSPACK scaling algorithm.
;
_exptl_absorpt_special_details     ?
_exptl_crystal_colour              ?
_exptl_crystal_density_diffrn      1.585
_exptl_crystal_density_meas        ?
_exptl_crystal_density_method      ?
_exptl_crystal_description         ?
_exptl_crystal_F_000               560
_exptl_crystal_size_max            ?
_exptl_crystal_size_mid            ?
_exptl_crystal_size_min            ?
_exptl_transmission_factor_max     ?
_exptl_transmission_factor_min     ?
_diffrn_reflns_av_R_equivalents    0.0318
_diffrn_reflns_av_unetI/netI       0.0544
_diffrn_reflns_Laue_measured_fraction_full  0.740
_diffrn_reflns_Laue_measured_fraction_max  0.739
_diffrn_reflns_limit_h_max         6
_diffrn_reflns_limit_h_min         -5
_diffrn_reflns_limit_k_max         12
_diffrn_reflns_limit_k_min         -12
_diffrn_reflns_limit_l_max         20
_diffrn_reflns_limit_l_min         -24
_diffrn_reflns_number              2502
_diffrn_reflns_point_group_measured_fraction_full  0.670
_diffrn_reflns_point_group_measured_fraction_max  0.663
_diffrn_reflns_theta_full          10.013
_diffrn_reflns_theta_max           10.436
_diffrn_reflns_theta_min           1.597
_diffrn_ambient_temperature        293(2)
_diffrn_detector                   'CCD plate'
_diffrn_detector_area_resol_mean   ?
_diffrn_measured_fraction_theta_full  0.740
_diffrn_measured_fraction_theta_max  0.739
_diffrn_measurement_details
;
List of Runs (angles in degrees, time in seconds):

  # Type    Start    End  Width  t~exp~   \w     \q     \k     \f   Frames
--------------------------------------------------------------------------
  1  \f    -30.50  30.00   0.50    1.00   0.00   0.00   0.00    --   121
;
_diffrn_measurement_device         'abstract diffractometer'
_diffrn_measurement_device_type    'Perkin-Elmer a-Si Detector'
_diffrn_measurement_method         '\f scans'
_diffrn_orient_matrix_type        
 'CrysAlisPro convention (1999,Acta A55,543-557)'
_diffrn_orient_matrix_UB_11        0.0270334000
_diffrn_orient_matrix_UB_12        -0.0122364000
_diffrn_orient_matrix_UB_13        -0.0103906000
_diffrn_orient_matrix_UB_21        -0.0070017000
_diffrn_orient_matrix_UB_22        -0.0248607000
_diffrn_orient_matrix_UB_23        0.0058792000
_diffrn_orient_matrix_UB_31        -0.0503029000
_diffrn_orient_matrix_UB_32        -0.0030991000
_diffrn_orient_matrix_UB_33        -0.0063967000
_diffrn_radiation_monochromator    synchrotron
_diffrn_radiation_probe            x-ray
_diffrn_radiation_type             synchrotron
_diffrn_radiation_wavelength       0.2898
_diffrn_source                     synchrotron
_reflns_Friedel_coverage           0.502
_reflns_Friedel_fraction_full      0.565
_reflns_Friedel_fraction_max       0.550
_reflns_number_gt                  1145
_reflns_number_total               1523
_reflns_odcompleteness_completeness  73.15
_reflns_odcompleteness_iscentric   1
_reflns_odcompleteness_theta       10.44
_reflns_special_details
;
 Reflections were merged by SHELXL according to the crystal
 class for the calculation of statistics and refinement.
 
 _reflns_Friedel_fraction is defined as the number of unique
 Friedel pairs measured divided by the number that would be
 possible theoretically, ignoring centric projections and
 systematic absences.
;
_reflns_threshold_expression       'I > 2\s(I)'
_computing_cell_refinement         'CrysAlisPro 1.171.40.84a (Rigaku OD, 2020)'
_computing_data_collection         'CrysAlisPro 1.171.40.84a (Rigaku OD, 2020)'
_computing_data_reduction          'CrysAlisPro 1.171.40.84a (Rigaku OD, 2020)'
_computing_molecular_graphics      'Olex2 1.3 (Dolomanov et al., 2009)'
_computing_publication_material    'Olex2 1.3 (Dolomanov et al., 2009)'
_computing_structure_refinement    'SHELXL 2018/3 (Sheldrick, 2015)'
_computing_structure_solution      ?
_refine_diff_density_max           0.134
_refine_diff_density_min           -0.136
_refine_diff_density_rms           0.036
_refine_ls_abs_structure_details
;
 Flack x determined using 281 quotients [(I+)-(I-)]/[(I+)+(I-)]
 (Parsons, Flack and Wagner, Acta Cryst. B69 (2013) 249-259).
;
_refine_ls_abs_structure_Flack     4.1(10)
_refine_ls_extinction_coef         0.08(2)
_refine_ls_extinction_expression  
 'Fc^*^=kFc[1+0.001xFc^2^\l^3^/sin(2\q)]^-1/4^'
_refine_ls_extinction_method       'SHELXL-2018/3 (Sheldrick 2018)'
_refine_ls_goodness_of_fit_ref     1.045
_refine_ls_hydrogen_treatment      mixed
_refine_ls_matrix_type             full
_refine_ls_number_parameters       174
_refine_ls_number_reflns           1523
_refine_ls_number_restraints       156
_refine_ls_R_factor_all            0.0652
_refine_ls_R_factor_gt             0.0397
_refine_ls_restrained_S_all        0.994
_refine_ls_shift/su_max            0.000
_refine_ls_shift/su_mean           0.000
_refine_ls_structure_factor_coef   Fsqd
_refine_ls_weighting_details      
 'w=1/[\s^2^(Fo^2^)+(0.0387P)^2^+0.0203P] where P=(Fo^2^+2Fc^2^)/3'
_refine_ls_weighting_scheme        calc
_refine_ls_wR_factor_gt            0.0854
_refine_ls_wR_factor_ref           0.0967
_refine_special_details            ?
_olex2_refinement_description
;
1. Fixed Uiso
 At 1.2 times of:
  All C(H) groups, All C(H,H) groups, All N(H,H) groups
 At 1.5 times of:
  All O(H) groups
2. Rigid body (RIGU) restrains
 All non-hydrogen atoms
 with sigma for 1-2 distances of 0.005 and sigma for 1-3 distances of 0.005
3.a Ternary CH refined with riding coordinates:
 C1(H1), C3(H3), C4(H4), C6(H6)
3.b Secondary CH2 refined with riding coordinates:
 C8(H8A,H8B)
3.c Aromatic/amide H refined with riding coordinates:
 C2(H2), C10(H10)
3.d Tetrahedral OH refined with riding coordinates:
 O2(H2A), O3(H3C), O4(H4A)
3.e X=CH2 refined with riding coordinates:
 N3(H3A,H3B)
;
_atom_sites_solution_hydrogens     geom
_atom_sites_solution_primary       ?
_atom_sites_solution_secondary     ?
loop_
  _atom_site_label
  _atom_site_type_symbol
  _atom_site_fract_x
  _atom_site_fract_y
  _atom_site_fract_z
  _atom_site_U_iso_or_equiv
  _atom_site_adp_type
  _atom_site_occupancy
  _atom_site_site_symmetry_order
  _atom_site_calc_flag
  _atom_site_refinement_flags_posn
  _atom_site_refinement_flags_adp
  _atom_site_refinement_flags_occupancy
  _atom_site_disorder_assembly
  _atom_site_disorder_group
 C1 C 0.4845(8) 0.6754(3) 0.2750(2) 0.0276(9) Uani 1 1 d . . . . .
 H1 H 0.342747 0.728796 0.292651 0.033 Uiso 1 1 calc R U . . .
 C2 C 0.2950(12) 0.6209(4) 0.4706(3) 0.0524(14) Uani 1 1 d . . . . .
 H2 H 0.163617 0.664223 0.492756 0.063 Uiso 1 1 calc R U . . .
 C3 C 0.6735(8) 0.7604(3) 0.2361(2) 0.0271(9) Uani 1 1 d . . . . .
 H3 H 0.580311 0.839654 0.224444 0.032 Uiso 1 1 calc R U . . .
 C4 C 0.7248(8) 0.6818(3) 0.1775(2) 0.0290(9) Uani 1 1 d . . . . .
 H4 H 0.866004 0.619002 0.185376 0.035 Uiso 1 1 calc R U . . .
 C5 C 0.5189(8) 0.5918(3) 0.3842(2) 0.0303(10) Uani 1 1 d . . . . .
 C6 C 0.4611(9) 0.6131(3) 0.1694(2) 0.0316(10) Uani 1 1 d . . . . .
 H6 H 0.334222 0.671513 0.149406 0.038 Uiso 1 1 calc R U . . .
 C7 C 0.6714(9) 0.4939(3) 0.4115(2) 0.0315(10) Uani 1 1 d . . . . .
 C8 C 0.4730(10) 0.4896(4) 0.1328(2) 0.0375(11) Uani 1 1 d . . . . .
 H8A H 0.538105 0.507154 0.091061 0.045 Uiso 1 1 calc R U . . .
 H8B H 0.596241 0.430854 0.152839 0.045 Uiso 1 1 calc R U . . .
 C9 C 0.6060(10) 0.4588(4) 0.4723(3) 0.0397(12) Uani 1 1 d . . . . .
 C10 C 0.8098(9) 0.5134(3) 0.3177(2) 0.0317(10) Uani 1 1 d . . . . .
 H10 H 0.905671 0.502158 0.281014 0.038 Uiso 1 1 calc R U . . .
 N1 N 0.4207(10) 0.5270(4) 0.5031(2) 0.0472(11) Uani 1 1 d . . . . .
 N2 N 0.3294(8) 0.6606(3) 0.4126(2) 0.0403(10) Uani 1 1 d . . . . .
 N3 N 0.7266(11) 0.3592(4) 0.5017(2) 0.0513(12) Uani 1 1 d . . . . .
 H3A H 0.684196 0.340409 0.539512 0.062 Uiso 1 1 calc R U . . .
 H3B H 0.845496 0.314827 0.482517 0.062 Uiso 1 1 calc R U . . .
 N4 N 0.8502(7) 0.4454(3) 0.3684(2) 0.0346(9) Uani 1 1 d . . . . .
 N5 N 0.6111(6) 0.6030(3) 0.3244(2) 0.0282(8) Uani 1 1 d . . . . .
 O1 O 0.3722(6) 0.5853(2) 0.23166(17) 0.0345(8) Uani 1 1 d . . . . .
 O2 O 0.9129(6) 0.7930(2) 0.26659(16) 0.0337(7) Uani 1 1 d . . . . .
 H2A H 0.881810 0.844475 0.294687 0.050 Uiso 1 1 calc R U . . .
 O3 O 0.7831(7) 0.7527(2) 0.12323(17) 0.0410(9) Uani 1 1 d . . . . .
 H3C H 0.888714 0.810120 0.131726 0.061 Uiso 1 1 calc R U . . .
 O4 O 0.2168(7) 0.4307(2) 0.1290(2) 0.0491(10) Uani 1 1 d . . . . .
 H4A H 0.160265 0.436826 0.093215 0.09(3) Uiso 1 1 calc R . . . .

loop_
  _atom_site_aniso_label
  _atom_site_aniso_U_11
  _atom_site_aniso_U_22
  _atom_site_aniso_U_33
  _atom_site_aniso_U_23
  _atom_site_aniso_U_13
  _atom_site_aniso_U_12
 C1 0.030(2) 0.0284(18) 0.024(3) -0.0012(15) -0.0010(18) 0.0028(14)
 C2 0.053(3) 0.056(3) 0.048(4) -0.006(2) 0.018(3) 0.000(2)
 C3 0.029(2) 0.0252(17) 0.027(3) -0.0007(15) 0.0009(18) 0.0022(13)
 C4 0.033(2) 0.0275(18) 0.027(3) 0.0014(16) -0.0028(19) -0.0021(15)
 C5 0.030(2) 0.035(2) 0.026(3) -0.0007(16) 0.0042(17) -0.0038(14)
 C6 0.031(2) 0.028(2) 0.035(3) 0.0034(16) -0.0050(19) -0.0033(15)
 C7 0.035(3) 0.0291(19) 0.030(3) 0.0017(17) 0.0004(19) -0.0043(16)
 C8 0.044(3) 0.039(2) 0.029(3) -0.0030(18) 0.004(2) -0.0140(17)
 C9 0.047(3) 0.037(2) 0.035(3) 0.0004(19) 0.003(2) -0.0093(17)
 C10 0.035(3) 0.0332(19) 0.027(3) 0.0002(17) 0.0028(19) 0.0075(16)
 N1 0.054(3) 0.054(2) 0.034(3) 0.0010(18) 0.005(2) -0.0056(18)
 N2 0.038(2) 0.045(2) 0.038(3) -0.0040(17) 0.012(2) 0.0040(15)
 N3 0.072(3) 0.055(2) 0.028(3) 0.0106(17) -0.001(2) -0.0004(19)
 N4 0.041(2) 0.0344(18) 0.028(3) 0.0006(14) -0.0011(17) 0.0065(14)
 N5 0.026(2) 0.0295(17) 0.029(3) 0.0007(14) 0.0044(16) 0.0043(12)
 O1 0.0385(18) 0.0382(14) 0.027(2) -0.0018(12) 0.0033(14) -0.0084(11)
 O2 0.0328(17) 0.0359(14) 0.032(2) -0.0075(13) -0.0008(14) -0.0009(11)
 O3 0.052(2) 0.0422(15) 0.028(2) 0.0002(13) 0.0017(16) -0.0213(13)
 O4 0.059(2) 0.0540(19) 0.035(3) 0.0064(15) -0.0087(18) -0.0300(15)

_geom_special_details
;
 All esds (except the esd in the dihedral angle between two l.s. planes)
 are estimated using the full covariance matrix.  The cell esds are taken
 into account individually in the estimation of esds in distances, angles
 and torsion angles; correlations between esds in cell parameters are only
 used when they are defined by crystal symmetry.  An approximate (isotropic)
 treatment of cell esds is used for estimating esds involving l.s. planes.
;
loop_
  _geom_bond_atom_site_label_1
  _geom_bond_atom_site_label_2
  _geom_bond_distance
  _geom_bond_site_symmetry_2
  _geom_bond_publ_flag
 C1 H1 0.9800 . ?
 C1 C3 1.543(6) . ?
 C1 N5 1.447(6) . ?
 C1 O1 1.434(5) . ?
 C2 H2 0.9300 . ?
 C2 N1 1.354(7) . ?
 C2 N2 1.321(7) . ?
 C3 H3 0.9800 . ?
 C3 C4 1.519(6) . ?
 C3 O2 1.412(5) . ?
 C4 H4 0.9800 . ?
 C4 C6 1.518(5) . ?
 C4 O3 1.406(5) . ?
 C5 C7 1.402(6) . ?
 C5 N2 1.339(5) . ?
 C5 N5 1.365(6) . ?
 C6 H6 0.9800 . ?
 C6 C8 1.505(6) . ?
 C6 O1 1.435(6) . ?
 C7 C9 1.392(7) . ?
 C7 N4 1.384(6) . ?
 C8 H8A 0.9700 . ?
 C8 H8B 0.9700 . ?
 C8 O4 1.430(6) . ?
 C9 N1 1.344(7) . ?
 C9 N3 1.355(7) . ?
 C10 H10 0.9300 . ?
 C10 N4 1.310(6) . ?
 C10 N5 1.374(5) . ?
 N3 H3A 0.8600 . ?
 N3 H3B 0.8600 . ?
 O2 H2A 0.8200 . ?
 O3 H3C 0.8200 . ?
 O4 H4A 0.8200 . ?

loop_
  _geom_angle_atom_site_label_1
  _geom_angle_atom_site_label_2
  _geom_angle_atom_site_label_3   
  _geom_angle
  _geom_angle_site_symmetry_1
  _geom_angle_site_symmetry_3
  _geom_angle_publ_flag
 C3 C1 H1 109.4 . . ?
 N5 C1 H1 109.4 . . ?
 N5 C1 C3 115.0(3) . . ?
 O1 C1 H1 109.4 . . ?
 O1 C1 C3 105.5(4) . . ?
 O1 C1 N5 107.9(3) . . ?
 N1 C2 H2 114.9 . . ?
 N2 C2 H2 114.9 . . ?
 N2 C2 N1 130.3(5) . . ?
 C1 C3 H3 108.9 . . ?
 C4 C3 C1 104.0(3) . . ?
 C4 C3 H3 108.9 . . ?
 O2 C3 C1 114.4(4) . . ?
 O2 C3 H3 108.9 . . ?
 O2 C3 C4 111.5(3) . . ?
 C3 C4 H4 109.9 . . ?
 C6 C4 C3 101.5(3) . . ?
 C6 C4 H4 109.9 . . ?
 O3 C4 C3 115.9(3) . . ?
 O3 C4 H4 109.9 . . ?
 O3 C4 C6 109.6(4) . . ?
 N2 C5 C7 126.0(5) . . ?
 N2 C5 N5 128.5(4) . . ?
 N5 C5 C7 105.5(4) . . ?
 C4 C6 H6 109.1 . . ?
 C8 C6 C4 115.2(4) . . ?
 C8 C6 H6 109.1 . . ?
 O1 C6 C4 105.1(4) . . ?
 O1 C6 H6 109.1 . . ?
 O1 C6 C8 108.9(3) . . ?
 C9 C7 C5 116.8(4) . . ?
 N4 C7 C5 110.0(4) . . ?
 N4 C7 C9 133.0(4) . . ?
 C6 C8 H8A 109.4 . . ?
 C6 C8 H8B 109.4 . . ?
 H8A C8 H8B 108.0 . . ?
 O4 C8 C6 111.1(4) . . ?
 O4 C8 H8A 109.4 . . ?
 O4 C8 H8B 109.4 . . ?
 N1 C9 C7 119.0(4) . . ?
 N1 C9 N3 119.1(5) . . ?
 N3 C9 C7 121.9(5) . . ?
 N4 C10 H10 123.5 . . ?
 N4 C10 N5 113.1(4) . . ?
 N5 C10 H10 123.5 . . ?
 C9 N1 C2 116.9(5) . . ?
 C2 N2 C5 110.8(4) . . ?
 C9 N3 H3A 120.0 . . ?
 C9 N3 H3B 120.0 . . ?
 H3A N3 H3B 120.0 . . ?
 C10 N4 C7 104.7(4) . . ?
 C5 N5 C1 125.5(3) . . ?
 C5 N5 C10 106.7(3) . . ?
 C10 N5 C1 126.6(4) . . ?
 C1 O1 C6 110.3(3) . . ?
 C3 O2 H2A 109.5 . . ?
 C4 O3 H3C 109.5 . . ?
 C8 O4 H4A 109.5 . . ?

loop_
  _geom_torsion_atom_site_label_1
  _geom_torsion_atom_site_label_2
  _geom_torsion_atom_site_label_3
  _geom_torsion_atom_site_label_4
  _geom_torsion
  _geom_torsion_site_symmetry_1
  _geom_torsion_site_symmetry_2
  _geom_torsion_site_symmetry_3
  _geom_torsion_site_symmetry_4
  _geom_torsion_publ_flag
 C1 C3 C4 C6 33.2(4) . . . . ?
 C1 C3 C4 O3 151.7(4) . . . . ?
 C3 C1 N5 C5 134.7(4) . . . . ?
 C3 C1 N5 C10 -59.6(5) . . . . ?
 C3 C1 O1 C6 -3.9(4) . . . . ?
 C3 C4 C6 C8 -156.1(4) . . . . ?
 C3 C4 C6 O1 -36.2(4) . . . . ?
 C4 C6 C8 O4 178.7(4) . . . . ?
 C4 C6 O1 C1 25.6(4) . . . . ?
 C5 C7 C9 N1 -6.0(7) . . . . ?
 C5 C7 C9 N3 175.1(4) . . . . ?
 C5 C7 N4 C10 1.2(5) . . . . ?
 C7 C5 N2 C2 -2.5(6) . . . . ?
 C7 C5 N5 C1 168.4(3) . . . . ?
 C7 C5 N5 C10 0.3(4) . . . . ?
 C7 C9 N1 C2 4.7(7) . . . . ?
 C8 C6 O1 C1 149.6(3) . . . . ?
 C9 C7 N4 C10 176.0(5) . . . . ?
 N1 C2 N2 C5 0.9(8) . . . . ?
 N2 C2 N1 C9 -2.2(9) . . . . ?
 N2 C5 C7 C9 5.1(7) . . . . ?
 N2 C5 C7 N4 -179.2(4) . . . . ?
 N2 C5 N5 C1 -13.5(6) . . . . ?
 N2 C5 N5 C10 178.5(4) . . . . ?
 N3 C9 N1 C2 -176.4(5) . . . . ?
 N4 C7 C9 N1 179.5(4) . . . . ?
 N4 C7 C9 N3 0.5(8) . . . . ?
 N4 C10 N5 C1 -167.5(4) . . . . ?
 N4 C10 N5 C5 0.4(5) . . . . ?
 N5 C1 C3 C4 99.6(4) . . . . ?
 N5 C1 C3 O2 -22.2(5) . . . . ?
 N5 C1 O1 C6 -127.3(3) . . . . ?
 N5 C5 C7 C9 -176.7(4) . . . . ?
 N5 C5 C7 N4 -1.0(5) . . . . ?
 N5 C5 N2 C2 179.8(4) . . . . ?
 N5 C10 N4 C7 -1.0(5) . . . . ?
 O1 C1 C3 C4 -19.1(4) . . . . ?
 O1 C1 C3 O2 -141.0(3) . . . . ?
 O1 C1 N5 C5 -107.9(4) . . . . ?
 O1 C1 N5 C10 57.8(5) . . . . ?
 O1 C6 C8 O4 60.8(5) . . . . ?
 O2 C3 C4 C6 157.0(3) . . . . ?
 O2 C3 C4 O3 -84.4(4) . . . . ?
 O3 C4 C6 C8 80.9(5) . . . . ?
 O3 C4 C6 O1 -159.1(3) . . . . ?

_shelx_res_file
;
TITL vida_c_p01 in P2(1)2(1)2(1)
    vida_c_p01.res
    created by SHELXL-2018/3 at 10:47:53 on 13-Jan-2023
REM P2(1)2(1)2(1) (#19 in standard setting)
CELL 0.2898 5.033134 10.395635 21.409435 90 90 90
ZERR 4 0.000401 0.000647 0.002165 0 0 0
LATT -1
SYMM 0.5+X,0.5-Y,-Z
SYMM -X,0.5+Y,0.5-Z
SYMM 0.5-X,-Y,0.5+Z
SFAC C H N O
DISP C -0.002 0.0002 4.0078
DISP H 0 0 0.5738
DISP N -0.0032 0.0004 5.0852
DISP O -0.004 0.0008 6.4665
UNIT 40 52 20 16
RIGU 0.005 0.005

L.S. 20 0 0
PLAN  5
CONF
MORE -1
BOND $H
fmap 2 53
acta
OMIT 4 3 9
OMIT -1 -4 -13
OMIT 0 3 13
OMIT -4 -2 -13
OMIT -1 4 13
OMIT 2 1 14
OMIT -4 2 13
REM <olex2.extras>
REM <HklSrc "%.\\vida_c_p01.hkl">
REM </olex2.extras>

WGHT    0.038700    0.020300
EXTI    0.084086
FVAR       4.13762
C1    1    0.484497    0.675385    0.274982    11.00000    0.03032    0.02838 =
         0.02408   -0.00116   -0.00101    0.00283
AFIX  13
H1    2    0.342747    0.728796    0.292651    11.00000   -1.20000
AFIX   0
C2    1    0.295019    0.620852    0.470639    11.00000    0.05280    0.05592 =
         0.04839   -0.00611    0.01812    0.00044
AFIX  43
H2    2    0.163617    0.664223    0.492756    11.00000   -1.20000
AFIX   0
C3    1    0.673459    0.760408    0.236067    11.00000    0.02939    0.02521 =
         0.02661   -0.00070    0.00093    0.00223
AFIX  13
H3    2    0.580311    0.839654    0.224444    11.00000   -1.20000
AFIX   0
C4    1    0.724792    0.681846    0.177499    11.00000    0.03278    0.02753 =
         0.02683    0.00144   -0.00279   -0.00210
AFIX  13
H4    2    0.866004    0.619002    0.185376    11.00000   -1.20000
AFIX   0
C5    1    0.518937    0.591760    0.384151    11.00000    0.02991    0.03509 =
         0.02588   -0.00069    0.00423   -0.00384
C6    1    0.461069    0.613056    0.169415    11.00000    0.03099    0.02824 =
         0.03545    0.00337   -0.00497   -0.00328
AFIX  13
H6    2    0.334222    0.671513    0.149406    11.00000   -1.20000
AFIX   0
C7    1    0.671410    0.493917    0.411465    11.00000    0.03505    0.02908 =
         0.03038    0.00168    0.00044   -0.00432
C8    1    0.472974    0.489573    0.132839    11.00000    0.04445    0.03946 =
         0.02852   -0.00301    0.00397   -0.01395
AFIX  23
H8A   2    0.538105    0.507154    0.091061    11.00000   -1.20000
H8B   2    0.596241    0.430854    0.152839    11.00000   -1.20000
AFIX   0
C9    1    0.606014    0.458782    0.472292    11.00000    0.04713    0.03682 =
         0.03525    0.00043    0.00253   -0.00932
C10   1    0.809756    0.513393    0.317739    11.00000    0.03514    0.03324 =
         0.02663    0.00019    0.00279    0.00754
AFIX  43
H10   2    0.905671    0.502158    0.281014    11.00000   -1.20000
AFIX   0
N1    3    0.420703    0.526962    0.503055    11.00000    0.05440    0.05354 =
         0.03367    0.00103    0.00513   -0.00561
N2    3    0.329440    0.660585    0.412616    11.00000    0.03826    0.04499 =
         0.03764   -0.00396    0.01154    0.00399
N3    3    0.726580    0.359218    0.501685    11.00000    0.07187    0.05463 =
         0.02754    0.01062   -0.00098   -0.00037
AFIX  93
H3A   2    0.684196    0.340409    0.539512    11.00000   -1.20000
H3B   2    0.845496    0.314827    0.482517    11.00000   -1.20000
AFIX   0
N4    3    0.850224    0.445439    0.368369    11.00000    0.04130    0.03438 =
         0.02816    0.00058   -0.00108    0.00652
N5    3    0.611051    0.602991    0.324445    11.00000    0.02624    0.02953 =
         0.02879    0.00074    0.00443    0.00434
O1    4    0.372226    0.585345    0.231659    11.00000    0.03845    0.03822 =
         0.02691   -0.00182    0.00334   -0.00844
O2    4    0.912886    0.793033    0.266585    11.00000    0.03282    0.03590 =
         0.03225   -0.00746   -0.00083   -0.00094
AFIX  83
H2A   2    0.881810    0.844475    0.294687    11.00000   -1.50000
AFIX   0
O3    4    0.783094    0.752666    0.123231    11.00000    0.05242    0.04224 =
         0.02820    0.00018    0.00172   -0.02127
AFIX  83
H3C   2    0.888714    0.810120    0.131726    11.00000   -1.50000
AFIX   0
O4    4    0.216838    0.430671    0.129008    11.00000    0.05875    0.05397 =
         0.03469    0.00645   -0.00867   -0.03002
AFIX  83
H4A   2    0.160265    0.436826    0.093215    11.00000    0.08695
AFIX   0
HKLF 4




REM  vida_c_p01 in P2(1)2(1)2(1)
REM wR2 = 0.0967, GooF = S = 1.045, Restrained GooF = 0.994 for all data
REM R1 = 0.0397 for 1145 Fo > 4sig(Fo) and 0.0652 for all 1523 data
REM 174 parameters refined using 156 restraints

END

WGHT      0.0387      0.0203

REM Highest difference peak  0.134,  deepest hole -0.136,  1-sigma level  0.036
Q1    1   0.5844  0.3461  0.0991  11.00000  0.05    0.13
Q2    1   0.5833  0.7337  0.2612  11.00000  0.05    0.13
Q3    1   0.4576  0.8774  0.2000  11.00000  0.05    0.12
Q4    1   0.4855  0.4843  0.3800  11.00000  0.05    0.12
Q5    1   0.5381  0.8001  0.3221  11.00000  0.05    0.12
;
_shelx_res_checksum                9620
_shelx_hkl_file
;
   0   2   0 42258.5 508.515   1
   0  -2   0 41634.3 492.746   1
   0  -2   1 76401.8 624.474   1
   0   2  -1 76331.1 621.712   1
   0  -2   2 65726.2 577.290   1
   0   2  -2 66183.2 581.281   1
   0   2  -3 2641.18 117.585   1
   0  -2   3 2628.75 115.304   1
   0  -2   4 39258.9 451.419   1
   0   2  -4 39110.3 464.667   1
   0   2  -5 2381.23 119.542   1
   0  -2   5 2264.64 138.216   1
   0  -2   6 47677.9 943.379   1
   0   2  -6 46979.6 602.501   1
   0   2  -7 27874.7 581.962   1
   0   2  -8-540.922 191.776   1
   0   3   0 4.46658 51.4513   1
   0  -3   0 1.15998 38.6942   1
   0   3  -1 28310.7 474.764   1
   0  -3   1 28440.7 458.473   1
   0  -3   2 294.221 56.7623   1
   0   3  -2 284.076 60.4017   1
   0   3  -3 17801.6 364.124   1
   0  -3   3 17822.4 368.034   1
   0  -3   4 17072.5 357.025   1
   0   3  -4 17997.8 370.205   1
   0  -3   5 29314.2 469.940   1
   0   3  -5 28877.1 491.855   1
   0  -3   6 8009.84 249.156   1
   0   3  -6 7298.00 246.608   1
   0  -3   7 26886.9 520.070   1
   0   3  -7 26654.0 493.174   1
   0   3  -8 3057.64 171.959   1
   0  -3   8 3153.19 256.764   1
   0  -3   9 32.5364 228.650   1
   0   3  -9 80.4740 52.9391   1
   0   3 -12 2873.13 262.474   1
   0   3 -13 14057.1 654.993   1
   0  -4   0 1170.67 118.903   1
   0   4   0 1057.07 121.364   1
   0  -4  -1 119.783 66.9747   1
   0   4  -1 163.454 64.5266   1
   0  -4   1 63.7602 44.2704   1
   0   4  -2 1050.72 112.443   1
   0  -4   2 764.081 96.8543   1
   0   4  -3 67667.2 835.307   1
   0  -4   3 65804.5 816.614   1
   0   4  -4 4039.81 214.252   1
   0  -4   4 3626.65 199.703   1
   0  -4   5 17772.1 442.452   1
   0  -4   6 12265.2 351.327   1
   0   4  -6 12279.4 372.472   1
   0  -4   7 1433.49 132.069   1
   0   4  -7 1468.83 137.800   1
   0   4  -8 13552.2 387.625   1
   0  -4   8 13707.1 402.066   1
   0   4  -9 571.103 99.7124   1
   0  -4  10 141.225 105.618   1
   0   4 -10 131.693 72.2192   1
   0   4 -11 4565.92 243.513   1
   0   4 -12 5419.78 284.398   1
   0   4 -13 3562.90 249.563   1
   0   4 -14 1123.53 152.858   1
   0   4 -15 2466.08 223.562   1
   0   4 -16 1868.78 210.612   1
   0  -5   0 91.3470 70.5666   1
   0  -5   1 867.140 122.461   1
   0   5  -1 782.939 128.290   1
   0  -5  -1 708.315 126.597   1
   0   5  -2-175.726 125.841   1
   0   5  -3 734.228 115.457   1
   0  -5   3 698.527 109.311   1
   0  -5   4 43.3895 60.6401   1
   0   5  -4-101.353 79.7156   1
   0   5  -5 13976.0 445.094   1
   0  -5   6 1888.51 176.413   1
   0   5  -6 1897.02 165.840   1
   0  -5   7 13340.5 398.755   1
   0   5  -7 11984.3 414.824   1
   0   5  -8 7798.31 341.763   1
   0  -5   8 7951.04 321.264   1
   0   5  -9 3377.27 215.913   1
   0  -5   9 3145.76 218.914   1
   0  -5  10-9.48199 79.5585   1
   0   5 -10 70.3799 72.2544   1
   0   5 -11 15624.6 471.228   1
   0  -5  11 13890.4 532.720   1
   0  -5  12 880.733 197.886   1
   0   5 -12 1268.95 153.589   1
   0  -5  13 137.834 232.575   1
   0   5 -13 269.352 102.118   1
   0   5 -14 3113.68 228.670   1
   0  -5  14 748.381 623.173   1
   0   5 -15 5615.76 304.631   1
   0   5 -16 84.5809 77.1926   1
   0   5 -17 2538.54 233.606   1
   0   5 -18 482.729 128.708   1
   0   5 -19 4748.45 319.607   1
   0  -6   0 481.482 120.450   1
   0   6  -1 30467.3 733.425   1
   0  -6  -1 30293.7 722.066   1
   0  -6   1 30251.5 686.540   1
   0   6  -2 12408.8 454.275   1
   0  -6   2 11711.0 430.907   1
   0  -6   3 4004.32 253.662   1
   0   6  -3 4109.50 258.734   1
   0   6  -4 4940.48 294.900   1
   0  -6   4 4861.73 295.241   1
   0  -6   5 172.812 91.1163   1
   0   6  -5-24.9279 103.803   1
   0   6  -6 774.399 137.476   1
   0  -6   6 1225.55 153.484   1
   0  -6   7 141.932 78.8484   1
   0   6  -7 137.649 84.3941   1
   0  -6   8 14468.1 470.009   1
   0  -6   9 17963.9 523.989   1
   0   6  -9 16789.6 538.430   1
   0  -6  10 9279.39 379.243   1
   0   6 -10 9011.65 400.288   1
   0  -6  11 442.349 118.687   1
   0   6 -11 649.817 143.205   1
   0   6 -12 11080.8 456.607   1
   0  -6  12 12196.2 476.471   1
   0  -6  13 1076.40 190.863   1
   0   6 -13 674.552 141.555   1
   0   6 -14 2457.81 228.219   1
   0  -6  14 1433.66 314.000   1
   0  -6  15 118.589 272.404   1
   0   6 -15 120.956 110.845   1
   0  -6  16 1800.76 712.261   1
   0   6 -16 2479.93 239.866   1
   0   6 -17 841.323 154.546   1
   0   6 -18 998.958 164.368   1
   0   6 -19 388.226 117.370   1
   0   6 -20 2144.63 222.154   1
   0   6 -21 1307.17 185.055   1
   0   6 -22 3239.74 270.086   1
   0  -7   0 80.0948 109.265   1
   0  -7   1 61.8173 90.2097   1
   0   7  -1 53.1381 124.554   1
   0  -7  -1-116.041 101.485   1
   0  -7   2 1281.72 172.015   1
   0   7  -2 1315.21 186.703   1
   0   7  -3 614.677 139.388   1
   0  -7   3 871.835 145.706   1
   0   7  -4-55.9603 93.3686   1
   0  -7   4 90.6929 83.8430   1
   0  -7   5 125.362 95.6018   1
   0   7  -5 204.644 109.995   1
   0  -7   6 5182.22 320.878   1
   0   7  -6 4544.92 314.026   1
   0   7  -7 1828.90 218.424   1
   0  -7   7 2051.38 205.941   1
   0   7  -8 7006.29 372.425   1
   0  -7   8 6429.99 345.591   1
   0  -7   9 10308.5 433.496   1
   0   7  -9 9789.09 435.703   1
   0  -7  10 49.9779 93.4343   1
   0   7 -10 1.33225 112.821   1
   0   7 -11 1990.84 226.538   1
   0  -7  11 1920.31 209.856   1
   0  -7  12 377.317 125.085   1
   0   7 -12 455.842 152.538   1
   0  -7  13 9899.58 508.812   1
   0   7 -13 10440.8 454.633   1
   0  -7  14 4920.22 368.558   1
   0  -7  15-288.746 143.679   1
   0   7 -15 134.222 115.226   1
   0  -7  16 390.005 258.797   1
   0   7 -16 265.675 129.902   1
   0  -7  17 1598.75 535.202   1
   0   7 -17 2463.45 253.834   1
   0  -7  18 610.279 767.076   1
   0   7 -18 7.72551 110.766   1
   0   7 -19-19.6439 104.609   1
   0   7 -20 1945.60 240.709   1
   0   7 -21 1995.18 229.592   1
   0   7 -22 36.7814 98.6541   1
   0  -8   0 1055.25 181.378   1
   0  -8   1 186.428 112.668   1
   0  -8  -1 233.882 120.197   1
   0   8  -1 11.2364 153.308   1
   0  -8   2 2465.03 243.545   1
   0   8  -2 1843.37 270.858   1
   0  -8   3 1286.81 185.071   1
   0   8  -3 831.815 197.554   1
   0   8  -4 226.028 134.673   1
   0  -8   4 182.248 118.343   1
   0   8  -5 1316.15 201.354   1
   0  -8   5 1513.22 191.659   1
   0  -8   6 1387.38 192.626   1
   0   8  -6 1230.77 194.019   1
   0  -8   7 558.103 122.777   1
   0   8  -7 1262.95 198.661   1
   0  -8   8 285.766 137.947   1
   0   8  -8-519.558 199.615   1
   0   8  -9 1457.83 209.788   1
   0  -8   9 1340.29 193.562   1
   0  -8  10 1461.74 194.143   1
   0   8 -10 1415.69 203.054   1
   0  -8  11 1033.80 174.465   1
   0   8 -11 889.465 180.502   1
   0  -8  12 1691.10 214.459   1
   0   8 -12 1378.42 221.988   1
   0  -8  13 277.809 142.312   1
   0   8 -13 99.6390 120.772   1
   0   8 -14 427.008 158.670   1
   0  -8  14 413.901 145.936   1
   0   8 -15-56.8668 131.258   1
   0  -8  15 53.1708 128.793   1
   0   8 -16 326.055 142.669   1
   0  -8  16 452.428 192.505   1
   0  -8  17-83.4450 208.356   1
   0   8 -17 50.3796 135.600   1
   0  -8  18 187.030 285.435   1
   0   8 -18 6.88201 125.909   1
   0  -8  19 171.519 507.544   1
   0   8 -19 486.467 163.558   1
   0   8 -20 479.370 170.173   1
   0   8 -21-41.4867 133.328   1
   0  -9   0 264.459 150.249   1
   0  -9   1 1078.99 187.056   1
   0  -9  -1 1055.80 195.050   1
   0   9  -2 1409.98 322.427   1
   0  -9   2 254.963 147.766   1
   0   9  -3 304.399 162.214   1
   0  -9   3 251.452 113.478   1
   0  -9   4-56.1952 131.035   1
   0   9  -4-12.5479 137.485   1
   0   9  -5 1434.11 222.522   1
   0  -9   5 1362.23 215.473   1
   0   9  -6 178.456 149.759   1
   0  -9   6 97.5664 110.455   1
   0  -9   7 104.989 114.223   1
   0   9  -7 224.042 152.782   1
   0  -9   8 177.842 147.677   1
   0   9  -8 263.002 164.919   1
   0  -9   9 2996.14 295.757   1
   0   9  -9 3442.33 321.280   1
   0   9 -10 2911.72 299.174   1
   0  -9  10 2530.13 268.077   1
   0  -9  11 1209.17 200.710   1
   0   9 -11 1296.85 220.111   1
   0   9 -12 2456.69 281.138   1
   0  -9  12 2678.27 278.368   1
   0  -9  13 95.7179 140.087   1
   0   9 -13 153.680 131.338   1
   0   9 -14 381.597 142.182   1
   0  -9  14 349.382 148.546   1
   0   9 -15-1.76051 135.446   1
   0  -9  15 162.933 125.947   1
   0  -9  16 271.097 169.038   1
   0   9 -16 157.298 143.681   1
   0   9 -17 506.689 170.800   1
   0  -9  17 419.360 221.100   1
   0   9 -18 167.669 148.933   1
   0  -9  18 48.4752 194.043   1
   0   9 -19 48.4700 136.439   1
   0  -9  19 58.3159 269.911   1
   0 -10   0 879.378 202.738   1
   0 -10   1 2113.10 268.500   1
   0 -10  -1 2030.37 267.005   1
   0 -10   2 3763.85 293.114   1
   0  10  -2 3673.25 408.093   1
   0 -10   3 854.461 189.488   1
   0  10  -3 1129.67 255.090   1
   0  10  -4-85.6839 154.968   1
   0 -10   4-5.38690 125.754   1
   0  10  -5 2870.12 317.287   1
   0  10  -6 82.0191 158.290   1
   0 -10   6-140.859 144.248   1
   0  10  -7 2806.27 318.619   1
   0 -10   7 3047.87 290.408   1
   0  10  -8 2294.21 301.213   1
   0 -10   9 87.9015 117.875   1
   0  10  -9 105.856 155.065   1
   0 -10  10 101.061 147.347   1
   0  10 -10 26.7930 142.430   1
   0 -10  11 90.6400 125.452   1
   0  10 -11-104.306 159.356   1
   0 -10  12 1420.82 227.923   1
   0  10 -12 1246.58 245.400   1
   0  10 -13-34.5539 148.816   1
   0 -10  13 91.2795 138.648   1
   0  10 -14 1442.05 250.852   1
   0 -10  14 1684.98 264.197   1
   0  10 -15 192.057 164.602   1
   0 -10  15 88.1509 145.436   1
   0 -10  16 15.8110 144.362   1
   0  10 -16 47.0983 147.551   1
   0 -10  17 232.772 183.950   1
   0  10 -17 553.654 210.972   1
   0 -11   0 101.143 150.607   1
   0 -11   1 440.563 164.814   1
   0 -11  -1 297.962 162.889   1
   0 -11   2-190.615 159.632   1
   0  11  -3 793.136 292.110   1
   0 -11   3 192.420 133.179   1
   0  11  -4 196.484 194.990   1
   0 -11   4-61.9209 144.900   1
   0  11  -5 977.133 234.585   1
   0 -11   5 1076.31 217.745   1
   0 -11   6 1.85512 139.847   1
   0  11  -6 2.26888 162.509   1
   0 -11   7 514.075 186.908   1
   0  11  -7 114.093 175.497   1
   0 -11   8 965.378 211.646   1
   0  11  -8 847.612 220.318   1
   0  11  -9 1047.48 238.092   1
   0 -11   9 1113.82 223.649   1
   0  11 -10 1108.49 244.648   1
   0 -11  10 1343.85 231.356   1
   0 -11  11 837.542 196.079   1
   0  11 -11 716.789 211.691   1
   0 -11  12 534.445 178.826   1
   0  11 -12 293.340 173.788   1
   0  11 -13 245.452 207.511   1
   0 -11  13 7.87161 139.282   1
   0  11 -14-114.927 188.695   1
   0 -11  14-162.220 160.812   1
   0 -12   0 2063.72 297.858   1
   0 -12  -1 3595.13 378.241   1
   0 -12   1 3841.31 389.855   1
   0 -12   2 1373.54 271.564   1
   0  12  -3 195.000 268.151   1
   0 -12   3 410.827 190.353   1
   0  12  -4 946.996 397.383   1
   0 -12   4 152.667 177.892   1
   0 -12   5 904.076 208.805   1
   0  12  -5 866.983 264.730   1
   0  12  -6 1595.41 338.432   1
   0 -12   6 1573.72 254.349   1
   0  12  -7 514.158 209.791   1
   0 -12   7 562.918 199.434   1
   0 -12   8 320.681 164.168   1
   0  12  -8-26.8907 190.988   1
   0  12  -9 51.4271 173.234   1
   0 -12   9 106.046 149.805   1
   0  12 -10 348.184 213.204   1
   0 -12  10 169.878 155.199   1
  -1   1  -6 32854.9 377.647   1
  -1   1  -7 3388.37 161.654   1
   1  -2   7 17832.5 344.718   1
   1  -2   6 9922.96 235.415   1
   1   2  -5 131.720 157.373   1
   1  -2   4 3220.28 134.665   1
   1  -2   3 20922.5 346.629   1
   1   2  -3 21024.6 381.322   1
   1  -2   2 202329. 1127.54   1
   1   2  -2 201991. 1033.55   1
   1   2  -1 99417.5 668.504   1
  -1  -2  -1 99022.6 650.579   1
   1   2   0 158922. 848.180   1
  -1  -2   0 159080. 814.566   1
  -1  -2   1 99494.7 667.175   1
   1   2   1 98706.7 672.857   1
  -1  -2   2 205570. 1109.68   1
  -1   2  -3 21070.4 354.572   1
  -1  -2   3 20887.8 614.552   1
  -1   2  -4 2949.51 133.042   1
  -1   2  -5 331.198 49.4603   1
  -1   2  -6 9503.76 237.578   1
  -1   2  -7 17690.9 334.124   1
  -1   2  -8 4380.05 177.917   1
  -1   2  -9 13696.8 329.911   1
  -1   2 -10 6242.44 237.536   1
  -1   2 -11 924.009 128.298   1
  -1   2 -13 99.0922 111.841   1
   1  -3  10 160.944 98.5273   1
   1  -3   9 21198.6 465.082   1
   1  -3   8 1798.34 129.014   1
   1   3  -7 21958.1 533.025   1
   1  -3   7 21563.8 405.011   1
   1  -3   6 40692.5 558.141   1
   1   3  -6 41087.7 666.879   1
   1  -3   5 20355.3 407.772   1
   1   3  -5 19941.7 423.618   1
   1  -3   4 4054.63 178.590   1
   1   3  -4 4018.37 177.133   1
   1  -3   3 34391.0 534.425   1
  -1  -3  -3 34277.0 554.909   1
   1   3  -3 33947.4 495.106   1
   1  -3   2 6992.70 252.209   1
  -1  -3  -2 6786.39 213.028   1
   1   3  -2 6665.49 214.411   1
   1   3  -1 24908.3 428.960   1
  -1  -3  -1 25276.2 411.059   1
  -1  -3   0 23490.8 395.892   1
   1   3   0 23455.9 413.153   1
   1   3   1 25359.4 421.973   1
  -1  -3   1 25645.2 403.228   1
  -1  -3   2 6608.91 212.247   1
   1   3   2 6487.09 235.677   1
  -1   3  -3 34771.7 571.378   1
  -1  -3   3 34693.1 499.140   1
  -1   3  -4 3978.86 186.748   1
  -1  -3   4 3967.01 190.695   1
  -1   3  -5 19432.9 398.168   1
  -1   3  -6 41402.5 595.065   1
  -1  -3   6 39855.1 1188.70   1
  -1   3  -7 21053.2 429.245   1
  -1   3  -8 1774.71 132.899   1
  -1   3 -10 493.736 81.3940   1
  -1   3 -11 13807.4 380.288   1
  -1   3 -12 315.933 85.3226   1
  -1   3 -13 396.408 89.7495   1
  -1   3 -14 1877.22 180.551   1
  -1   3 -15 156.619 79.9017   1
  -1   3 -17 375.788 113.153   1
   1  -4  14 1517.77 556.649   1
   1   4 -13 856.337 214.106   1
   1   4 -12 4537.64 343.494   1
   1   4 -11 9264.04 444.580   1
   1  -4  10 4933.72 239.817   1
   1   4 -10 5576.70 295.893   1
   1  -4   9 1364.02 132.690   1
   1   4  -9 1420.48 151.468   1
   1   4  -8 3071.71 203.315   1
   1  -4   8 2959.48 194.055   1
   1  -4   7 23413.1 483.655   1
   1   4  -7 22864.6 523.057   1
   1   4  -6 12552.0 375.678   1
   1  -4   6 13985.6 372.904   1
   1   4  -5 17681.9 423.527   1
   1  -4   4 18990.6 441.256   1
   1   4  -4 18494.2 437.275   1
   1  -4   3 4070.42 213.117   1
   1   4  -3 3783.88 194.193   1
  -1  -4  -3 3965.47 208.858   1
   1   4  -2 1820.30 137.023   1
   1  -4   2 1773.87 149.750   1
  -1  -4  -2 1648.56 130.766   1
  -1  -4  -1 21005.0 450.462   1
   1  -4   1 20953.8 563.932   1
   1   4  -1 20686.9 453.060   1
  -1  -4   0 361.678 78.6801   1
   1   4   0 460.561 84.9893   1
   1   4   1 20685.0 465.921   1
  -1  -4   1 21153.4 448.681   1
  -1  -4   2 1913.73 135.042   1
   1   4   2 1612.65 149.776   1
  -1   4  -3 3967.40 221.373   1
  -1  -4   3 3821.34 189.159   1
  -1  -4   4 18109.5 414.289   1
  -1   4  -4 18771.6 457.562   1
  -1  -4   5 17408.9 409.996   1
  -1   4  -5 17392.7 437.633   1
  -1   4  -6 13710.7 383.461   1
  -1  -4   6 12988.2 400.301   1
  -1   4  -7 22935.8 512.757   1
  -1  -4   7 24297.5 612.062   1
  -1  -4   8 3179.84 335.550   1
  -1   4  -8 3602.40 207.185   1
  -1   4  -9 1498.34 138.898   1
  -1  -4   9 438.730 329.831   1
  -1   4 -10 4957.77 260.729   1
  -1   4 -11 10707.9 354.514   1
  -1   4 -12 4755.15 244.325   1
  -1   4 -13 5448.99 274.807   1
  -1   4 -14 2362.70 194.333   1
  -1   4 -15 8430.16 344.180   1
  -1   4 -16 6998.79 316.470   1
  -1   4 -17 3064.25 221.765   1
  -1   4 -18 2225.54 198.787   1
  -1   4 -19 3280.71 257.468   1
  -1   4 -20 740.140 135.191   1
   1  -5  16 817.621 600.788   1
   1   5 -16 246.000 102.158   1
   1   5 -15 4390.12 318.091   1
   1  -5  14 7653.46 439.765   1
   1   5 -14 7877.39 409.246   1
   1  -5  13 13740.9 522.577   1
   1   5 -13 15043.9 527.712   1
   1  -5  12 152.604 83.0349   1
   1   5 -12 181.333 98.6938   1
   1   5 -11 2263.01 198.958   1
   1  -5  11 2297.20 184.463   1
   1   5 -10 1480.40 172.321   1
   1  -5  10 1234.39 140.186   1
   1  -5   9 5136.66 270.742   1
   1   5  -9 5341.92 289.702   1
   1  -5   8 5223.73 272.981   1
   1   5  -8 4819.52 262.897   1
   1  -5   7 16524.2 477.011   1
   1   5  -7 16542.8 459.349   1
   1  -5   6 12567.7 397.442   1
   1   5  -6 12081.2 407.705   1
   1  -5   5 7392.40 319.873   1
   1   5  -5 6981.79 304.898   1
   1  -5   4 1810.89 161.633   1
   1   5  -4 1673.66 158.709   1
  -1  -5  -4 2145.35 194.980   1
   1  -5   3 6299.44 293.620   1
  -1  -5  -3 6430.36 303.416   1
   1   5  -3 6232.43 284.768   1
  -1  -5  -2 17.6885 60.7357   1
   1   5  -2 123.510 70.8251   1
   1  -5   2 29.2596 66.2225   1
   1  -5   1 4897.43 303.387   1
   1   5  -1 5650.01 277.421   1
  -1  -5  -1 5712.70 261.598   1
   1   5   0 4127.99 228.441   1
  -1  -5   0 4046.92 222.989   1
   1   5   1 5549.12 285.034   1
  -1  -5   1 5887.58 265.292   1
  -1  -5   2 112.519 63.1809   1
   1   5   2 120.658 101.356   1
  -1  -5   3 5615.79 271.389   1
  -1   5  -3 5166.07 322.970   1
  -1   5  -4 1615.98 171.834   1
  -1  -5   4 1466.60 137.039   1
  -1   5  -5 6783.39 313.265   1
  -1  -5   5 6990.80 291.505   1
  -1  -5   6 12310.3 386.832   1
  -1   5  -6 12867.0 418.012   1
  -1   5  -7 17621.1 491.701   1
  -1  -5   7 17370.4 486.058   1
  -1  -5   8 4468.60 275.239   1
  -1   5  -8 4753.58 269.196   1
  -1   5  -9 5408.97 270.468   1
  -1   5 -10 1481.33 157.496   1
  -1  -5  10 945.276 251.542   1
  -1  -5  11 917.403 482.483   1
  -1   5 -11 1896.33 196.351   1
  -1   5 -12 36.9163 71.1935   1
  -1   5 -13 16203.4 488.610   1
  -1   5 -14 7667.42 335.598   1
  -1   5 -15 4329.86 264.798   1
  -1   5 -16 753.750 141.564   1
  -1   5 -17 345.487 102.973   1
  -1   5 -18 925.263 153.942   1
  -1   5 -19 137.878 94.5122   1
  -1   5 -20 1394.41 157.568   1
  -1   5 -21 900.911 138.762   1
  -1   5 -22 229.282 92.5780   1
  -1   5 -23 124.108 73.9701   1
   1  -6  18 75.8477 561.359   1
   1   6 -18 176.668 135.893   1
   1   6 -17 414.313 134.616   1
   1  -6  17 438.077 299.109   1
   1  -6  16 254.886 254.309   1
   1   6 -16 617.745 146.853   1
   1   6 -15 2547.81 235.827   1
   1   6 -14 3830.21 287.860   1
   1  -6  14 3445.97 286.129   1
   1   6 -13 2966.34 251.880   1
   1  -6  13 3053.24 238.864   1
   1   6 -12 396.899 117.100   1
   1  -6  12 338.082 114.960   1
   1  -6  11 1071.38 146.854   1
   1  -6  10 204.987 101.743   1
   1   6 -10 228.311 109.982   1
   1  -6   9-411.894 92.2066   1
   1   6  -9 150.289 95.4194   1
   1  -6   8 6415.82 320.881   1
   1   6  -8 6088.04 324.908   1
   1  -6   7 1596.22 184.498   1
   1   6  -7 1605.99 181.841   1
   1  -6   6 3028.24 223.061   1
   1   6  -6 2465.87 219.926   1
   1   6  -5 93.4581 78.4025   1
   1  -6   5 136.017 90.6390   1
   1   6  -4 4001.31 265.155   1
   1  -6   4 4091.29 267.288   1
  -1  -6  -4 4302.47 295.837   1
   1  -6   3 11459.9 437.523   1
  -1  -6  -3 11974.8 450.554   1
   1   6  -3 11150.1 431.133   1
   1   6  -2 1225.86 153.099   1
  -1  -6  -2 1277.94 151.693   1
   1  -6   2 1055.38 164.818   1
  -1  -6  -1 1413.69 155.419   1
   1   6  -1 1273.45 161.966   1
   1   6   0-3.30370 81.7973   1
  -1  -6   0 38.4292 75.3975   1
   1   6   1 1220.42 165.219   1
  -1  -6   1 1270.05 149.907   1
  -1  -6   2 1007.96 141.427   1
  -1  -6   3 11903.8 400.901   1
  -1   6  -3 12135.0 495.667   1
  -1   6  -4 3609.54 292.609   1
  -1  -6   4 4371.90 250.723   1
  -1  -6   5 56.9606 80.0207   1
  -1   6  -5 134.711 106.524   1
  -1   6  -6 2788.39 222.614   1
  -1  -6   6 3243.87 219.476   1
  -1  -6   7 1643.28 168.331   1
  -1   6  -7 1824.83 190.081   1
  -1  -6   8 6097.03 312.536   1
  -1   6  -8 5970.12 329.399   1
  -1  -6   9 108.738 104.837   1
  -1   6  -9-201.264 100.694   1
  -1   6 -10 142.224 88.0170   1
  -1  -6  10 145.123 106.079   1
  -1   6 -11 913.126 143.767   1
  -1  -6  11 1056.54 225.550   1
  -1   6 -12 192.023 103.994   1
  -1  -6  12 158.353 226.891   1
  -1  -6  13 2724.47 558.687   1
  -1   6 -14 4343.70 283.474   1
  -1   6 -15 2667.68 245.132   1
  -1   6 -17 472.089 131.604   1
  -1   6 -18 259.011 118.229   1
  -1   6 -19 1320.46 191.121   1
  -1   6 -20 677.956 143.495   1
  -1   6 -21 841.314 161.592   1
  -1   6 -22 999.965 168.005   1
  -1   6 -23 362.776 115.411   1
   1   7 -21 77.0031 99.3897   1
   1   7 -20 207.134 125.411   1
   1  -7  20 567.037 814.884   1
   1  -7  19-223.774 386.453   1
   1   7 -19 209.613 120.788   1
   1   7 -18 293.113 123.484   1
   1  -7  18 527.369 281.601   1
   1  -7  17 521.045 230.452   1
   1   7 -17 961.796 191.429   1
   1  -7  16 868.600 179.421   1
   1   7 -16 783.552 164.112   1
   1  -7  15 77.3198 129.454   1
   1   7 -15 107.852 111.362   1
   1  -7  14 810.621 156.244   1
   1   7 -14 776.212 169.696   1
   1   7 -13 869.222 162.945   1
   1   7 -12 6763.68 387.828   1
   1  -7  12 6074.71 356.601   1
   1   7 -11 1580.98 204.970   1
   1  -7  11 1278.47 174.552   1
   1   7 -10 259.129 108.887   1
   1  -7  10 1498.73 204.455   1
   1   7  -9 891.069 155.475   1
   1  -7   9 960.523 162.870   1
   1   7  -8 3532.65 269.581   1
   1  -7   8 3757.31 286.665   1
   1   7  -7 4748.71 310.996   1
   1  -7   7 4957.76 307.986   1
   1  -7   6 530.661 134.614   1
   1   7  -6 475.103 134.110   1
   1  -7   5 274.885 114.948   1
   1   7  -5 224.882 109.666   1
   1  -7   4 2235.23 222.814   1
  -1  -7  -4 2098.43 225.117   1
   1   7  -3 7100.34 377.263   1
   1  -7   3 7178.30 375.417   1
  -1  -7  -3 7277.49 372.392   1
  -1  -7  -2 2606.05 218.400   1
   1   7  -2 2431.41 240.637   1
   1  -7   2 2364.95 234.593   1
   1   7  -1 948.769 165.635   1
   1  -7   1 782.677 164.796   1
  -1  -7  -1 742.492 129.179   1
   1   7   0 7234.65 400.769   1
  -1  -7   0 8066.65 379.106   1
   1   7   1 794.972 171.822   1
  -1  -7   1 957.707 153.168   1
  -1  -7   3 7219.64 358.619   1
  -1  -7   4 2447.35 221.655   1
  -1   7  -4 2038.80 237.244   1
  -1   7  -5 246.274 145.527   1
  -1  -7   5 380.654 116.478   1
  -1  -7   6 543.243 125.079   1
  -1   7  -6 497.611 133.353   1
  -1   7  -7 4699.96 321.129   1
  -1  -7   7 4964.63 304.247   1
  -1   7  -8 3794.75 291.074   1
  -1  -7   8 3823.34 259.323   1
  -1   7  -9 1005.12 170.609   1
  -1  -7   9 828.811 146.196   1
  -1   7 -10-247.688 211.909   1
  -1  -7  10 236.688 113.507   1
  -1  -7  11 1413.98 206.118   1
  -1   7 -11 1270.47 198.397   1
  -1   7 -12 6230.42 369.305   1
  -1  -7  12 6029.74 393.509   1
  -1   7 -13 50.6946 206.671   1
  -1  -7  13 657.321 211.519   1
  -1   7 -14 525.123 146.960   1
  -1  -7  14 326.753 238.741   1
  -1   7 -15 20.6997 105.499   1
  -1  -7  15 177.564 479.460   1
  -1   7 -16 651.649 183.607   1
  -1   7 -17 722.292 181.554   1
  -1   7 -18 552.724 163.776   1
  -1   7 -19 363.415 148.115   1
  -1   7 -20 309.153 140.575   1
  -1   7 -21 2.88922 101.844   1
  -1   7 -22 947.227 182.905   1
   1  -8  20 466.247 370.983   1
   1   8 -20 819.641 182.704   1
   1  -8  19 162.140 212.035   1
   1   8 -19 101.145 148.131   1
   1  -8  18 1102.17 255.702   1
   1   8 -18 905.478 185.831   1
   1  -8  17 592.855 187.885   1
   1   8 -17 708.915 167.900   1
   1  -8  16 202.197 159.640   1
   1   8 -16 444.762 162.250   1
   1   8 -15 612.775 164.464   1
   1  -8  15 338.949 138.122   1
   1  -8  14 2933.29 278.754   1
   1   8 -14 3246.44 282.526   1
   1   8 -13 1429.28 217.100   1
   1  -8  13 1421.57 200.400   1
   1  -8  12 1887.04 228.439   1
   1   8 -12 2038.09 234.034   1
   1  -8  11 1052.30 190.351   1
   1   8 -11 926.535 167.180   1
   1   8 -10 20672.7 663.308   1
   1  -8  10 19430.0 625.081   1
   1   8  -9 1127.53 190.636   1
   1  -8   9 1006.99 186.554   1
   1  -8   8 17.3626 108.787   1
   1   8  -8 17.0430 125.738   1
   1  -8   7 65.9661 111.691   1
   1   8  -7 141.066 131.338   1
   1  -8   6 1740.87 212.290   1
   1   8  -6 1729.60 218.475   1
   1  -8   5 1743.91 205.752   1
   1  -8   4 1020.97 166.983   1
   1   8  -4 912.183 160.881   1
  -1  -8  -4 860.153 176.793   1
  -1  -8  -3 923.499 170.825   1
   1   8  -3 613.551 152.467   1
   1  -8   3 759.741 151.990   1
  -1  -8  -2 2911.47 253.485   1
   1   8  -2 2974.97 271.776   1
   1  -8   2 2885.87 269.347   1
  -1  -8  -1 5519.40 344.079   1
   1   8  -1 5778.82 368.946   1
   1  -8   1 5978.42 393.637   1
  -1  -8   0 5142.61 341.896   1
   1   8   0 5155.92 364.161   1
   1   8   1 4539.63 413.718   1
  -1  -8   1 5392.34 348.529   1
  -1  -8   2 2712.46 240.766   1
  -1  -8   3 964.765 173.849   1
  -1   8  -4 816.413 237.013   1
  -1  -8   4 1192.39 182.599   1
  -1  -8   5 1696.13 192.720   1
  -1   8  -5 1512.80 222.323   1
  -1   8  -6 1595.58 229.326   1
  -1  -8   6 1526.20 204.188   1
  -1  -8   7 104.292 96.2970   1
  -1   8  -7 219.369 150.129   1
  -1   8  -8 73.2188 119.570   1
  -1  -8   8 1.33160 100.371   1
  -1  -8   9 1208.42 182.271   1
  -1   8  -9 1113.10 187.247   1
  -1   8 -10 18321.5 666.306   1
  -1  -8  10 16730.5 586.406   1
  -1   8 -11 836.419 191.204   1
  -1  -8  11 1232.67 199.173   1
  -1   8 -12 1797.93 224.795   1
  -1  -8  12 1962.67 234.411   1
  -1  -8  13 1422.68 219.495   1
  -1   8 -13 1242.77 211.664   1
  -1  -8  14 2778.83 317.617   1
  -1   8 -14 2734.46 277.295   1
  -1  -8  15 14.1161 243.357   1
  -1   8 -15 448.725 169.512   1
  -1   8 -16 239.522 140.781   1
  -1  -8  16 424.186 365.163   1
  -1   8 -17 627.692 171.326   1
  -1  -8  17-51.4771 573.300   1
  -1   8 -18 790.588 202.060   1
  -1   8 -19 113.871 129.758   1
  -1   8 -20 979.172 202.652   1
   1   9 -18 150.903 156.380   1
   1  -9  18 71.9032 151.313   1
   1   9 -17 297.390 168.497   1
   1  -9  17 274.220 138.974   1
   1   9 -16 17.3219 127.851   1
   1  -9  16 261.009 150.837   1
   1   9 -15-18.2847 129.355   1
   1  -9  15 30.3336 124.907   1
   1   9 -14 134.848 149.480   1
   1  -9  14-117.139 119.035   1
   1  -9  13 386.358 156.694   1
   1   9 -13 366.570 155.961   1
   1   9 -12 2116.88 279.213   1
   1  -9  12 2146.29 236.241   1
   1  -9  11 233.356 142.963   1
   1   9 -11-205.247 149.162   1
   1  -9  10 1528.94 218.766   1
   1   9 -10 1197.85 193.762   1
   1  -9   9 422.984 163.960   1
   1   9  -9 296.590 172.658   1
   1  -9   8 1539.85 219.817   1
   1   9  -8 1599.81 236.461   1
   1  -9   7 715.581 172.367   1
   1   9  -7 853.958 179.838   1
   1   9  -6 376.749 127.112   1
   1  -9   6 140.941 134.486   1
   1  -9   5 172.413 115.333   1
   1   9  -5 355.644 166.818   1
   1   9  -4 1541.58 235.662   1
  -1  -9  -4 1786.44 244.580   1
   1  -9   4 1478.56 220.841   1
   1   9  -3 999.524 191.030   1
  -1  -9  -3 1168.72 195.323   1
   1  -9   3 1014.78 194.660   1
   1   9  -2 152.183 140.021   1
  -1  -9  -2 312.307 139.902   1
   1  -9   2 73.2315 109.763   1
  -1  -9  -1 53.2240 111.620   1
   1   9  -1-22.1132 142.141   1
   1  -9   1 46.9261 108.177   1
  -1  -9   0 365.791 146.755   1
   1   9   0-207.078 171.060   1
  -1  -9   1 68.8292 118.890   1
  -1  -9   2 245.297 125.180   1
  -1  -9   3 1012.22 165.782   1
  -1   9  -4 1672.83 277.356   1
  -1  -9   4 1915.88 220.950   1
  -1  -9   5 226.430 116.332   1
  -1   9  -5 240.811 157.150   1
  -1  -9   6 266.092 121.299   1
  -1   9  -6 526.959 201.442   1
  -1  -9   7 913.062 164.321   1
  -1   9  -7 836.469 193.869   1
  -1   9  -8 1642.01 231.526   1
  -1   9  -9 366.465 141.267   1
  -1  -9   9 199.087 115.361   1
  -1   9 -10 1597.23 241.950   1
  -1  -9  10 1539.83 208.562   1
  -1  -9  11-21.6734 118.678   1
  -1   9 -11 37.5312 159.211   1
  -1   9 -12 2211.83 272.236   1
  -1  -9  12 2010.00 242.792   1
  -1  -9  13 885.905 209.020   1
  -1   9 -13 244.496 138.635   1
  -1   9 -14 44.2242 136.385   1
  -1  -9  14-72.5104 143.649   1
  -1  -9  15 65.6931 162.871   1
  -1   9 -15 103.644 145.857   1
  -1  -9  16 43.6713 205.468   1
  -1   9 -16 231.296 174.805   1
  -1  -9  17-167.934 318.994   1
  -1   9 -17 246.191 150.894   1
  -1  -9  18-232.939 440.670   1
  -1   9 -18 60.0333 139.494   1
   1 -10  16 767.559 187.029   1
   1  10 -16 822.412 214.201   1
   1  10 -15 616.099 191.949   1
   1 -10  15 562.276 183.898   1
   1 -10  14 837.861 189.164   1
   1 -10  13 478.669 171.838   1
   1  10 -13 380.978 145.803   1
   1  10 -12 387.530 159.634   1
   1 -10  12 908.955 202.138   1
   1 -10  11 194.614 138.612   1
   1  10 -11 20.5796 138.087   1
   1 -10  10 131.999 122.688   1
   1  10 -10 31.4211 145.781   1
   1  10  -9 562.293 183.010   1
   1 -10   9 747.966 195.287   1
   1 -10   8 2261.72 284.818   1
   1  10  -8 2946.57 310.040   1
   1  10  -7 180.476 172.625   1
   1 -10   7-117.336 137.417   1
   1  10  -6 1146.78 218.024   1
   1 -10   6 1415.84 221.395   1
   1 -10   5 3894.86 343.219   1
   1  10  -5 3903.29 376.435   1
   1  10  -4 427.617 178.948   1
  -1 -10  -4 99.0801 126.589   1
   1 -10   4 150.765 139.335   1
   1  10  -3 5019.37 400.042   1
   1 -10   3 5254.37 390.815   1
  -1 -10  -3 5131.21 377.307   1
  -1 -10  -2 1913.50 253.472   1
   1 -10   2 2374.15 274.070   1
   1  10  -2 2121.41 309.031   1
   1  10  -1 1189.03 238.820   1
  -1 -10  -1 1204.44 221.910   1
   1 -10   1 1272.15 226.965   1
  -1 -10   0 1877.05 278.792   1
   1  10   0 1473.94 278.165   1
  -1 -10   1 1159.55 221.569   1
  -1 -10   2 2498.52 274.350   1
  -1 -10   3 5326.75 365.105   1
  -1 -10   4 22.2829 131.279   1
  -1 -10   5 4393.38 330.683   1
  -1  10  -5 3864.40 406.024   1
  -1  10  -6 988.105 243.801   1
  -1 -10   6 1480.99 233.314   1
  -1 -10   7-8.52360 146.217   1
  -1  10  -7 37.0560 170.507   1
  -1  10  -8 2995.91 324.105   1
  -1 -10   8 2884.37 292.910   1
  -1 -10   9 377.604 154.477   1
  -1  10  -9 771.360 207.025   1
  -1 -10  10 205.575 132.625   1
  -1  10 -10-51.7488 157.468   1
  -1 -10  11 117.732 126.759   1
  -1  10 -11 201.345 158.840   1
  -1  10 -12 805.199 211.928   1
  -1 -10  12 767.472 187.342   1
  -1  10 -13 363.987 173.478   1
  -1 -10  13 456.030 176.387   1
  -1  10 -14 856.707 206.301   1
  -1  10 -15 633.677 201.638   1
  -1 -10  15 52.5146 158.053   1
  -1  10 -16 1268.78 252.040   1
  -1 -10  16 590.404 252.358   1
   1 -11  13 420.437 168.085   1
   1  11 -13 4.27236 172.766   1
   1 -11  12 702.617 191.046   1
   1  11 -12 293.664 176.644   1
   1 -11  11 390.555 183.624   1
   1  11 -11 479.986 199.368   1
   1  11 -10 332.183 196.549   1
   1 -11  10 187.115 172.810   1
   1  11  -9 665.711 194.711   1
   1 -11   9 747.455 197.948   1
   1  11  -8 1970.36 286.073   1
   1 -11   8 1316.94 221.511   1
   1 -11   7 398.904 167.309   1
   1  11  -7 376.519 203.474   1
   1 -11   6 26.4694 147.667   1
   1  11  -6 582.097 216.417   1
   1 -11   5 617.575 190.161   1
   1  11  -5 483.591 202.728   1
   1 -11   4 116.513 136.075   1
   1  11  -4 430.755 203.496   1
  -1 -11  -4 330.747 157.893   1
  -1 -11  -3 657.803 184.934   1
   1 -11   3 697.789 201.150   1
   1  11  -3 552.775 243.582   1
  -1 -11  -2 785.177 198.288   1
   1  11  -2 634.190 226.149   1
   1 -11   2 655.633 200.518   1
   1 -11   1-15.3115 137.499   1
  -1 -11  -1 91.3974 131.788   1
  -1 -11   0 118.551 133.924   1
  -1 -11   1-86.5376 163.601   1
  -1 -11   2 514.600 183.165   1
  -1 -11   3 798.870 202.065   1
  -1 -11   4 132.090 152.119   1
  -1 -11   5 387.098 154.402   1
  -1  11  -5 301.094 242.095   1
  -1 -11   6-46.7715 139.077   1
  -1  11  -6-86.6035 192.441   1
  -1 -11   7 304.683 149.214   1
  -1  11  -7 273.385 192.031   1
  -1 -11   8 1546.92 246.734   1
  -1  11  -8 1601.63 298.894   1
  -1 -11   9 761.217 211.219   1
  -1  11  -9 736.611 219.553   1
  -1  11 -10 143.155 168.964   1
  -1 -11  10-5.59249 136.166   1
  -1  11 -11 248.175 178.593   1
  -1 -11  11 333.374 165.155   1
  -1  11 -12 499.483 179.078   1
  -1 -11  12 762.578 219.858   1
  -1 -11  13 144.592 145.753   1
  -1  11 -13 254.787 159.762   1
   1  12  -9 14.4567 185.737   1
   1 -12   9 277.894 190.258   1
   1 -12   8-257.716 181.842   1
   1  12  -8-104.674 180.623   1
   1 -12   7 3326.40 348.719   1
   1  12  -7 2834.46 341.329   1
   1  12  -6 152.560 192.687   1
   1 -12   6 261.419 149.536   1
   1 -12   5 284.784 173.285   1
   1  12  -5 282.414 197.040   1
   1  12  -4 636.750 227.722   1
   1 -12   4 395.960 177.668   1
   1 -12   3 172.167 185.590   1
  -1 -12  -3 186.261 163.939   1
  -1 -12  -2 392.435 192.452   1
   1 -12   2 315.264 167.071   1
   1  12  -2 310.716 228.599   1
  -1 -12  -1 2051.13 293.690   1
   1  12  -1 1627.39 328.978   1
  -1 -12   0 523.566 184.995   1
  -1 -12   1 1993.56 280.886   1
  -1 -12   2-36.5960 152.211   1
  -1 -12   3 330.697 178.926   1
  -1 -12   4 429.443 161.203   1
  -1 -12   5 451.395 166.101   1
  -1  12  -6 196.059 226.817   1
  -1 -12   6 88.5317 163.059   1
  -1  12  -7 2414.68 406.837   1
  -1 -12   7 2600.46 311.440   1
  -1  12  -8 21.6019 230.583   1
  -1 -12   8 18.8421 147.408   1
  -1 -12   9 156.434 163.872   1
  -1  12  -9-8.06988 204.083   1
   2  -1   7 2947.70 109.881   1
  -2   1  -7 2881.50 108.628   1
  -2   1  -8 5587.68 157.012   1
  -2   1  -9 17558.4 300.158   1
  -2   1 -10 4385.66 159.709   1
  -2   1 -11 2021.19 129.672   1
  -2   1 -12 147.910 68.1423   1
  -2   1 -14 469.533 150.037   1
   2  -2   9 1614.35 111.931   1
   2  -2   8 6119.38 189.915   1
   2  -2   6 4068.40 155.007   1
   2  -2   5 12819.2 278.916   1
   2  -2   4 32252.8 480.134   1
  -2  -2  -2 15997.6 261.685   1
   2   2  -2 16009.7 643.350   1
  -2  -2  -1 4949.07 218.450   1
   2   2  -1 4700.36 202.855   1
   2   2   0 10268.4 232.880   1
   2   2   1 4699.13 148.285   1
   2   2   2 16332.6 253.050   1
  -2   2  -6 3897.62 164.889   1
  -2   2  -7 45608.8 552.787   1
  -2   2  -8 6231.58 208.327   1
  -2   2 -10 3006.86 152.835   1
  -2   2 -11 1343.82 117.798   1
  -2   2 -12 5023.39 201.133   1
  -2   2 -13 7697.42 258.270   1
  -2   2 -14 92.6700 54.0290   1
  -2   2 -15 17110.0 398.005   1
  -2   2 -17 138.816 69.9245   1
   2  -3  13 554.876 321.222   1
   2  -3  11 5026.86 238.931   1
   2  -3  10 203.283 63.0335   1
   2  -3   9 743.142 93.1752   1
   2  -3   8 925.749 100.420   1
   2  -3   7 208.838 61.5145   1
  -2  -3  -6 473.372 79.2149   1
   2  -3   6 408.981 72.1190   1
   2   3  -5 6273.54 354.332   1
   2  -3   5 6480.52 236.814   1
  -2  -3  -5 6511.83 201.220   1
   2  -3   4 31209.0 565.626   1
   2   3  -4 31896.6 606.678   1
  -2  -3  -4 31710.3 424.410   1
  -2  -3  -3 26489.5 392.218   1
   2   3  -3 26553.8 482.133   1
  -2  -3  -2 6541.28 198.193   1
   2   3  -2 6303.56 218.162   1
  -2  -3  -1 4221.17 157.621   1
   2   3  -1 4326.52 177.329   1
  -2  -3   0 4078.38 171.466   1
   2   3   0 4560.64 178.161   1
  -2  -3   1 4187.95 191.866   1
   2   3   1 4293.03 175.142   1
   2   3   2 6333.53 206.900   1
  -2  -3   2 5999.21 357.347   1
   2   3   3 26347.3 419.156   1
  -2   3  -6 523.249 93.9465   1
  -2   3  -7 266.949 67.3522   1
  -2   3  -8 922.821 102.354   1
  -2   3  -9 669.279 96.4478   1
  -2   3 -10 137.534 67.6085   1
  -2   3 -13 1648.47 145.857   1
  -2   3 -14 333.078 75.9252   1
  -2   3 -15 6652.74 275.669   1
  -2   3 -16 1368.23 137.675   1
  -2   3 -17 315.532 83.0291   1
  -2   3 -18 1117.99 121.876   1
  -2   3 -19 3345.43 212.933   1
  -2   3 -20 140.904 63.7074   1
  -2   3 -21 321.138 85.6753   1
   2  -4  15 2066.25 379.290   1
   2  -4  13 2776.20 202.342   1
   2  -4  12 365.426 90.6851   1
   2  -4  11 18.1651 57.5617   1
   2   4 -10-348.197 182.564   1
   2  -4  10 149.535 71.5927   1
   2  -4   9 136.716 75.3059   1
   2   4  -9 36.7127 94.7725   1
   2  -4   7 757.951 106.454   1
   2   4  -7 787.888 127.435   1
   2  -4   6 7481.96 287.602   1
   2   4  -6 7820.80 328.723   1
  -2  -4  -6 7193.00 286.280   1
   2  -4   5 33153.3 623.831   1
  -2  -4  -5 33057.6 552.822   1
   2   4  -5 33389.2 603.853   1
  -2  -4  -4 12175.3 330.512   1
   2  -4   4 12178.2 387.104   1
   2   4  -4 12319.2 359.102   1
  -2  -4  -3 12279.3 326.465   1
   2   4  -3 12250.5 341.939   1
  -2  -4  -2 26292.3 460.072   1
   2   4  -2 26643.7 499.785   1
   2   4  -1 7881.54 275.908   1
  -2  -4  -1 7587.90 257.928   1
   2   4   0 362.249 73.4551   1
  -2  -4   0 272.702 61.4558   1
   2   4   1 8525.58 282.113   1
  -2  -4   1 8045.16 269.006   1
   2   4   2 26585.3 488.931   1
  -2  -4   2 26498.9 499.523   1
   2   4   3 12356.8 361.631   1
  -2  -4   3 12502.6 383.454   1
  -2  -4   4 12442.4 458.532   1
  -2   4  -7 734.324 113.593   1
  -2   4  -8 2470.30 180.820   1
  -2   4  -9 197.284 84.3597   1
  -2   4 -10 187.180 85.7678   1
  -2   4 -11-32.1623 77.1908   1
  -2   4 -12 416.534 98.4038   1
  -2   4 -13 2768.50 195.540   1
  -2   4 -14 3985.89 233.794   1
  -2   4 -15 3213.03 222.969   1
  -2   4 -16 75.4615 73.0051   1
  -2   4 -17 11227.0 335.195   1
  -2   4 -18 728.069 105.700   1
  -2   4 -19 59.5586 74.2215   1
  -2   4 -20 1039.07 147.314   1
  -2   4 -21 821.210 123.766   1
  -2   4 -22 568.418 109.679   1
  -2   4 -23 84.3022 71.7854   1
  -2   4 -24 762.414 119.741   1
   2  -5  17 55.4735 263.775   1
   2  -5  16 52.4013 137.336   1
   2  -5  15 2074.70 204.709   1
   2  -5  14 1605.09 175.153   1
   2   5 -13-85.6048 104.814   1
   2  -5  13 519.558 116.382   1
   2   5 -12 271.172 124.170   1
   2  -5  12 146.140 80.6126   1
   2  -5  11 626.159 108.005   1
   2   5 -11 782.053 163.129   1
   2  -5  10 3331.41 219.534   1
   2   5 -10 2675.88 241.349   1
   2  -5   9 1997.63 176.007   1
   2   5  -9 2033.20 202.316   1
   2  -5   8 3246.20 209.013   1
   2   5  -8 3019.91 221.002   1
   2  -5   7 3777.36 232.763   1
   2   5  -7 3487.74 236.063   1
   2  -5   6 9939.39 371.625   1
  -2  -5  -6 9923.78 359.254   1
   2   5  -6 10066.0 369.690   1
   2  -5   5 16303.2 479.129   1
  -2  -5  -5 16469.8 439.334   1
   2   5  -5 16392.7 457.413   1
  -2  -5  -4 2357.59 171.075   1
   2  -5   4 2233.97 196.123   1
   2   5  -4 2489.58 183.220   1
  -2  -5  -3 2564.70 175.060   1
   2  -5   3 2702.04 224.827   1
   2   5  -3 2149.06 178.385   1
  -2  -5  -2 5715.55 257.930   1
   2   5  -2 5699.39 264.815   1
  -2  -5  -1 1956.65 158.964   1
   2   5  -1 2243.03 177.123   1
   2   5   0 453.263 99.1332   1
  -2  -5   0 507.578 89.9836   1
   2   5   1 2357.42 176.015   1
  -2  -5   1 2037.74 152.378   1
   2   5   2 5933.36 272.274   1
  -2  -5   2 5681.31 253.586   1
   2   5   3 2621.69 195.388   1
  -2  -5   3 2418.41 174.627   1
  -2  -5   4 2560.93 193.550   1
  -2  -5   5 17609.1 500.583   1
  -2   5  -6 9271.93 413.859   1
  -2  -5   6 8945.96 437.056   1
  -2   5  -7 3403.66 253.157   1
  -2   5  -8 3039.90 224.296   1
  -2  -5   8 2259.97 511.658   1
  -2   5  -9 2414.26 193.775   1
  -2   5 -10 2703.61 212.669   1
  -2   5 -11 657.744 129.424   1
  -2   5 -12 49.3812 80.4593   1
  -2   5 -13 374.498 105.134   1
  -2   5 -14 1518.59 166.974   1
  -2   5 -16 299.535 109.339   1
  -2   5 -17 265.815 116.509   1
  -2   5 -18 1301.62 183.133   1
  -2   5 -19 152.871 93.5409   1
  -2   5 -20 565.302 128.382   1
  -2   5 -21 115.106 94.8076   1
  -2   5 -22 245.533 93.5144   1
  -2   5 -23 142.809 88.3181   1
   2  -6  19 108.295 355.301   1
   2  -6  18 362.142 227.322   1
   2  -6  17 2210.86 254.930   1
   2  -6  16 494.868 142.865   1
   2   6 -15 1680.70 208.717   1
   2  -6  15 1712.07 204.251   1
   2   6 -14 2914.41 266.174   1
   2  -6  14 2923.41 225.336   1
   2   6 -13 575.631 148.286   1
   2  -6  13 866.092 136.465   1
   2   6 -12 12289.4 483.152   1
   2  -6  12 11751.7 428.910   1
   2   6 -11 1930.99 205.221   1
   2  -6  11 1817.97 180.438   1
   2  -6  10 9730.21 396.243   1
   2   6 -10 9580.97 430.494   1
   2  -6   9 723.821 135.718   1
   2   6  -9 561.768 129.527   1
   2  -6   8 14336.9 471.138   1
   2   6  -8 14340.4 474.461   1
   2  -6   7 1981.52 208.354   1
  -2  -6  -7 2151.38 212.407   1
   2   6  -7 2243.18 198.177   1
   2  -6   6 3606.46 255.928   1
  -2  -6  -6 3492.94 242.871   1
   2   6  -6 3792.89 261.613   1
   2   6  -5 4974.50 282.234   1
   2  -6   5 4932.33 297.142   1
  -2  -6  -5 4504.44 252.235   1
   2   6  -4 453.251 112.874   1
  -2  -6  -4 482.695 104.424   1
   2  -6   4 622.720 134.129   1
   2   6  -3 2862.83 214.767   1
  -2  -6  -3 2864.09 203.446   1
   2  -6   3 2863.94 247.137   1
  -2  -6  -2 939.847 131.440   1
   2   6  -2 775.144 135.806   1
  -2  -6  -1 1329.97 150.568   1
   2   6  -1 1443.91 162.653   1
  -2  -6   0 581.146 103.297   1
   2   6   0 538.840 121.860   1
   2   6   1 1510.26 161.604   1
  -2  -6   1 1428.03 154.184   1
   2   6   2 821.722 131.264   1
  -2  -6   2 914.604 118.651   1
   2   6   3 2469.34 241.640   1
  -2  -6   3 2979.15 213.923   1
  -2  -6   4 437.599 101.414   1
  -2  -6   5 4665.75 261.033   1
  -2  -6   6 3723.55 266.188   1
  -2   6  -7 2332.83 242.674   1
  -2  -6   7 2100.51 230.499   1
  -2   6  -8 14267.7 505.160   1
  -2  -6   8 12287.4 567.672   1
  -2   6  -9 670.782 136.224   1
  -2  -6   9 343.487 216.735   1
  -2   6 -10 9526.19 407.423   1
  -2   6 -11 1710.25 192.623   1
  -2   6 -12 12269.0 476.561   1
  -2   6 -13 765.331 155.552   1
  -2   6 -15 1629.02 199.146   1
  -2   6 -16 186.165 112.763   1
  -2   6 -17 2460.78 244.938   1
  -2   6 -18 599.392 155.871   1
  -2   6 -19 388.822 155.584   1
  -2   6 -20 1212.41 203.371   1
  -2   6 -21 119.863 118.751   1
  -2   6 -22 366.613 128.783   1
   2  -7  20-186.755 251.150   1
   2  -7  19-199.086 192.812   1
   2  -7  18 30.2973 125.913   1
   2   7 -18-1.87155 98.4909   1
   2   7 -17-77.1669 130.833   1
   2  -7  17-99.1513 119.586   1
   2   7 -16 217.979 125.577   1
   2  -7  16 127.188 98.4536   1
   2  -7  15 532.649 139.748   1
   2   7 -15 540.770 160.034   1
   2   7 -14 623.060 163.505   1
   2  -7  14 875.348 156.359   1
   2   7 -13 1422.70 209.726   1
   2  -7  13 1665.97 172.856   1
   2   7 -12 3148.35 273.185   1
   2  -7  12 3404.84 260.433   1
   2  -7  11 287.860 109.654   1
   2   7 -11 95.6266 106.042   1
   2   7 -10 442.177 151.722   1
   2  -7  10 526.249 141.637   1
   2  -7   9 1473.90 188.509   1
   2   7  -9 1189.49 183.114   1
   2   7  -8 243.830 115.317   1
   2  -7   8 266.954 107.221   1
   2  -7   7 1151.01 161.761   1
   2   7  -7 1063.49 165.666   1
  -2  -7  -7 1216.23 180.814   1
   2  -7   6 1729.19 199.083   1
  -2  -7  -6 1478.09 184.687   1
   2   7  -6 1650.18 184.725   1
   2   7  -5 4590.46 301.847   1
   2  -7   5 4712.48 307.510   1
  -2  -7  -5 4366.57 278.651   1
   2  -7   4 1432.25 185.624   1
  -2  -7  -4 1128.74 151.333   1
   2   7  -4 1177.12 159.699   1
  -2  -7  -3 100.102 90.7905   1
   2  -7   3 34.0012 125.846   1
   2   7  -3 19.8702 96.3958   1
  -2  -7  -2 5759.40 321.761   1
   2   7  -2 5950.86 328.540   1
   2   7  -1 298.393 113.580   1
  -2  -7  -1 272.138 95.9408   1
  -2  -7   0 3790.53 264.649   1
   2   7   0 3714.55 274.576   1
  -2  -7   1 347.697 100.781   1
   2   7   1 461.711 129.493   1
   2   7   2 5575.12 352.704   1
  -2  -7   2 6483.23 320.461   1
  -2  -7   3 20.4972 84.1276   1
   2   7   3 185.092 148.051   1
  -2  -7   4 1220.94 163.928   1
  -2  -7   5 4624.81 279.950   1
  -2   7  -6 1625.54 260.730   1
  -2  -7   6 1740.90 180.487   1
  -2   7  -7 1144.25 213.264   1
  -2  -7   7 1083.19 159.581   1
  -2   7  -8 277.706 148.468   1
  -2  -7   8 291.336 116.575   1
  -2   7  -9 1300.88 193.101   1
  -2  -7   9 940.929 182.182   1
  -2   7 -10 562.430 149.757   1
  -2  -7  10 298.611 195.435   1
  -2  -7  11-355.909 267.849   1
  -2   7 -11 12.3321 134.238   1
  -2   7 -12 3231.52 282.240   1
  -2  -7  12 1147.49 561.976   1
  -2   7 -13 1811.83 216.442   1
  -2   7 -14 849.820 169.242   1
  -2   7 -15 575.515 156.289   1
  -2   7 -16 91.3859 117.403   1
  -2   7 -17 16.5431 129.952   1
  -2   7 -18-52.9865 138.132   1
  -2   7 -19 139.410 133.645   1
  -2   7 -20 257.612 155.535   1
   2  -8  19 129.864 145.922   1
   2   8 -19 57.1524 121.996   1
   2   8 -18 1411.91 218.941   1
   2  -8  18 1054.07 210.157   1
   2  -8  17 385.904 136.998   1
   2   8 -17 302.115 140.961   1
   2   8 -16 2745.46 284.113   1
   2  -8  16 2823.21 274.341   1
   2  -8  15 1608.98 205.757   1
   2   8 -15 1876.50 254.019   1
   2  -8  14 3404.42 290.625   1
   2   8 -14 3381.24 293.966   1
   2   8 -13 158.494 143.474   1
   2  -8  13 224.157 122.419   1
   2   8 -12 422.795 140.516   1
   2  -8  12-31.1884 103.058   1
   2   8 -11 166.646 116.946   1
   2  -8  11 112.783 131.956   1
   2   8 -10 212.991 131.916   1
   2  -8  10 217.418 131.168   1
   2   8  -9 90.4529 119.040   1
   2  -8   9-88.0146 103.435   1
   2   8  -8 1398.41 200.403   1
   2  -8   8 1561.59 204.696   1
   2  -8   7 744.030 161.501   1
  -2  -8  -7 776.520 168.211   1
   2   8  -7 668.568 150.579   1
   2   8  -6 4964.75 333.017   1
   2  -8   6 5043.02 333.387   1
  -2  -8  -6 5062.91 331.056   1
   2   8  -5 4507.82 317.596   1
   2  -8   5 4155.63 314.630   1
  -2  -8  -5 3952.39 286.722   1
   2   8  -4 4988.25 332.027   1
  -2  -8  -4 4330.99 283.128   1
   2  -8   4 4807.64 345.288   1
   2   8  -3 6225.97 371.784   1
  -2  -8  -3 6524.86 353.244   1
   2  -8   3 6273.82 391.250   1
  -2  -8  -2 3523.12 263.862   1
   2   8  -2 3250.60 283.541   1
  -2  -8  -1 2766.45 245.065   1
   2   8  -1 3088.28 263.397   1
   2   8   0 614.325 156.783   1
  -2  -8   0 545.066 139.026   1
  -2  -8   1 2870.08 259.772   1
   2   8   1 2871.69 283.567   1
  -2  -8   2 3407.65 270.601   1
   2   8   2 3333.06 285.593   1
   2   8   3 6169.06 416.789   1
  -2  -8   3 6714.31 349.739   1
  -2  -8   4 4829.05 298.495   1
  -2  -8   5 4406.80 285.611   1
  -2  -8   6 4905.08 314.742   1
  -2  -8   7 717.894 147.601   1
  -2   8  -7 662.473 185.373   1
  -2   8  -8 1369.96 219.205   1
  -2  -8   8 1147.46 173.110   1
  -2  -8   9 187.967 121.503   1
  -2   8  -9 75.6332 145.354   1
  -2   8 -10 166.536 128.642   1
  -2  -8  10 47.2760 131.971   1
  -2   8 -11 305.455 145.565   1
  -2  -8  11 906.188 224.831   1
  -2  -8  12-238.494 238.025   1
  -2   8 -12-195.095 133.291   1
  -2   8 -13 315.473 158.280   1
  -2  -8  13 235.360 282.950   1
  -2   8 -14 3342.59 305.029   1
  -2  -8  14 2262.74 679.553   1
  -2   8 -15 1904.71 248.813   1
  -2   8 -16 2312.31 281.847   1
  -2   8 -17 497.874 181.990   1
  -2   8 -18 1457.09 232.842   1
  -2   8 -19 142.765 138.943   1
   2  -9  17 178.181 142.695   1
   2   9 -17 45.2217 140.681   1
   2   9 -16 629.256 192.891   1
   2  -9  16 609.768 171.028   1
   2  -9  15 2359.08 247.262   1
   2  -9  14 550.507 146.499   1
   2   9 -14 717.531 176.960   1
   2  -9  13 257.206 136.990   1
   2   9 -13 223.420 154.097   1
   2   9 -12 43.7315 129.270   1
   2  -9  12 49.8909 120.462   1
   2   9 -11 576.973 189.372   1
   2  -9  11 548.897 167.126   1
   2   9 -10 1476.76 242.469   1
   2  -9  10 1815.08 238.497   1
   2   9  -9 2407.37 265.399   1
   2   9  -8 922.984 200.389   1
   2  -9   8 1113.68 198.807   1
   2   9  -7 2597.23 273.693   1
   2  -9   7 2882.04 292.144   1
  -2  -9  -7 2445.66 266.996   1
   2   9  -6 4663.30 370.090   1
   2  -9   6 4811.19 352.544   1
  -2  -9  -6 5091.68 353.237   1
   2   9  -5 472.655 157.563   1
   2  -9   5 529.362 146.640   1
  -2  -9  -5 227.590 112.408   1
   2   9  -4 2507.54 263.899   1
  -2  -9  -4 2524.18 250.964   1
   2  -9   4 3171.59 296.395   1
  -2  -9  -3 681.497 163.951   1
   2   9  -3 531.995 158.588   1
   2  -9   3 602.081 179.909   1
  -2  -9  -2 5851.58 382.165   1
   2   9  -2 6580.23 411.093   1
   2   9  -1 192.298 132.096   1
  -2  -9  -1 369.300 150.075   1
  -2  -9   0 420.821 126.826   1
   2   9   0 292.711 157.044   1
  -2  -9   1 405.741 144.118   1
   2   9   1 267.826 155.050   1
  -2  -9   2 6263.17 371.763   1
  -2  -9   3 518.089 136.264   1
  -2  -9   4 2712.37 257.387   1
  -2  -9   5 930.400 180.319   1
  -2  -9   6 4647.42 333.274   1
  -2   9  -7 1909.03 320.147   1
  -2  -9   7 2509.39 249.663   1
  -2   9  -8 885.292 232.299   1
  -2  -9   8 936.162 190.494   1
  -2   9  -9 1985.31 286.055   1
  -2  -9   9 1684.11 212.878   1
  -2   9 -10 2065.68 277.017   1
  -2  -9  10 1589.73 228.572   1
  -2   9 -11 404.590 161.715   1
  -2  -9  11 349.773 158.672   1
  -2   9 -12 31.6786 139.191   1
  -2  -9  12-73.4690 159.457   1
  -2  -9  13 26.2966 176.549   1
  -2   9 -13 431.403 181.265   1
  -2   9 -14 419.882 177.367   1
  -2  -9  14 95.1006 247.844   1
  -2   9 -15 2121.02 277.012   1
  -2  -9  15 785.092 524.342   1
  -2   9 -16 707.123 196.308   1
  -2  -9  16-151.790 604.623   1
  -2   9 -17 114.957 175.285   1
   2 -10  14 85.2894 124.895   1
   2  10 -14-83.5742 173.719   1
   2 -10  13 1081.66 216.800   1
   2  10 -13 1254.11 243.957   1
   2 -10  12 154.709 141.179   1
   2  10 -12 47.5389 147.079   1
   2 -10  11 1295.58 218.227   1
   2  10 -11 1256.23 235.915   1
   2  10 -10 253.888 169.316   1
   2 -10  10 327.192 150.998   1
   2 -10   9 1558.58 254.632   1
   2  10  -9 1493.66 244.079   1
   2 -10   8 3035.12 320.228   1
   2  10  -8 3038.11 335.368   1
   2 -10   7 292.580 146.691   1
  -2 -10  -7 491.696 170.607   1
   2  10  -7 425.014 175.678   1
   2  10  -6-198.590 156.497   1
  -2 -10  -6 123.716 136.249   1
   2 -10   6-17.3313 139.892   1
   2  10  -5 600.884 194.522   1
   2 -10   5 619.440 189.791   1
  -2 -10  -5 634.458 191.648   1
   2 -10   4 621.866 182.131   1
  -2 -10  -4 648.294 173.516   1
   2  10  -4 712.830 207.389   1
  -2 -10  -3 1969.60 254.371   1
   2 -10   3 1798.62 266.344   1
   2  10  -3 1732.79 247.935   1
  -2 -10  -2-4.84466 116.828   1
   2  10  -2-62.8063 153.653   1
   2  10  -1 784.034 201.616   1
  -2 -10  -1 719.222 166.505   1
  -2 -10   0 2335.19 261.589   1
   2  10   0 2895.50 333.964   1
   2  10   1 790.967 218.168   1
  -2 -10   1 924.434 185.954   1
  -2 -10   2 77.0173 114.356   1
   2  10   2-155.942 180.172   1
  -2 -10   3 2081.89 241.665   1
  -2 -10   4 476.229 147.131   1
  -2 -10   5 727.383 163.818   1
  -2 -10   6-136.421 116.203   1
  -2 -10   7 163.403 127.322   1
  -2  10  -8 2539.39 353.452   1
  -2 -10   8 2858.32 298.166   1
  -2  10  -9 1123.06 255.468   1
  -2 -10   9 1045.04 189.808   1
  -2  10 -10 145.716 175.703   1
  -2 -10  10 304.085 151.619   1
  -2 -10  11 835.794 192.807   1
  -2  10 -11 1003.38 224.306   1
  -2  10 -12-106.314 168.454   1
  -2 -10  12 175.624 145.034   1
  -2  10 -13 1247.61 240.275   1
  -2 -10  13 1049.01 248.568   1
  -2 -10  14 327.453 255.214   1
  -2  10 -14 6.28881 153.319   1
   2 -11  11 64.6815 147.935   1
   2  11 -11 50.0367 169.486   1
   2 -11  10 413.462 172.731   1
   2  11 -10 564.060 205.774   1
   2  11  -9 259.699 170.135   1
   2  11  -8 185.568 149.939   1
   2 -11   8 227.894 172.960   1
   2 -11   7-203.838 152.542   1
   2  11  -7 90.6291 158.759   1
  -2 -11  -6 17.2875 125.750   1
   2 -11   6-29.7619 158.610   1
   2  11  -6 96.5383 159.456   1
   2 -11   5 857.791 202.869   1
   2  11  -5 771.888 202.472   1
  -2 -11  -5 936.145 206.694   1
  -2 -11  -4 1059.09 216.907   1
   2 -11   4 948.207 245.969   1
   2  11  -4 958.666 223.165   1
   2  11  -3 387.897 182.356   1
  -2 -11  -3 333.671 155.056   1
  -2 -11  -2 422.204 166.027   1
   2  11  -2 359.023 192.583   1
   2  11  -1 98.9889 208.365   1
  -2 -11  -1 175.486 147.932   1
  -2 -11   0 479.530 173.292   1
   2  11   0 57.7062 179.477   1
   2  11   1 223.688 208.691   1
  -2 -11   1 219.259 148.772   1
  -2 -11   2 474.184 152.743   1
  -2 -11   3 299.331 149.885   1
  -2 -11   4 985.748 196.110   1
  -2 -11   5 1187.65 226.076   1
  -2 -11   6-50.0258 136.295   1
  -2 -11   7-86.3653 128.113   1
  -2  11  -8 169.851 223.974   1
  -2 -11   8 298.493 164.641   1
  -2 -11   9 42.1169 141.365   1
  -2 -11  10 402.778 167.340   1
  -2  11 -10 740.955 246.555   1
  -2  11 -11 239.506 199.871   1
  -2 -11  11-131.649 141.526   1
   2 -12   5 349.643 187.041   1
  -2 -12  -5 404.780 194.523   1
   2  12  -5 391.281 199.453   1
   2  12  -4 18.8405 180.105   1
  -2 -12  -4 2.12216 178.702   1
   2 -12   4-38.0251 142.597   1
  -2 -12  -3 214.612 173.456   1
   2  12  -3 11.6659 171.007   1
   2  12  -2 305.564 213.143   1
  -2 -12  -2 394.586 173.843   1
  -2 -12  -1 149.513 151.391   1
   2  12  -1 55.2587 196.478   1
  -2 -12   0 213.710 155.764   1
   2  12   0 122.243 222.928   1
   2  12   1 365.768 251.541   1
  -2 -12   1 590.905 189.569   1
  -2 -12   2 112.449 144.868   1
  -2 -12   3-28.7273 136.728   1
  -2 -12   4 106.530 161.192   1
  -2 -12   5 196.111 162.476   1
  -3   0 -12 242.101 42.7715   1
  -3   1  -9 1618.86 93.6076   1
  -3   1 -10 4153.30 146.802   1
  -3   1 -11 3270.88 134.590   1
  -3   1 -13 620.458 75.9356   1
  -3   1 -14 2605.73 142.120   1
  -3   1 -15 290.818 60.9505   1
  -3   1 -16 2948.83 153.496   1
  -3   1 -17 3733.67 168.980   1
  -3   1 -19 394.776 80.2487   1
  -3   1 -20 431.932 89.0918   1
   3  -2  12 284.487 181.293   1
   3  -2  10 360.530 59.6420   1
   3  -2   9 1211.84 89.3391   1
   3  -2   8 1251.47 93.0427   1
   3  -2   7 1599.59 107.690   1
   3  -2   6 1190.81 95.5139   1
   3   2   0 3029.40 263.973   1
   3   2   1 9598.93 264.047   1
   3   2   2 1301.98 83.8668   1
   3   2   3 5199.41 146.207   1
  -3   2  -9 1275.56 108.271   1
  -3   2 -10 439.160 74.7393   1
  -3   2 -11 2144.54 132.109   1
  -3   2 -12 129.170 60.9933   1
  -3   2 -13 566.253 89.7970   1
  -3   2 -14 442.562 83.2071   1
  -3   2 -15 2545.08 161.667   1
  -3   2 -16 1360.58 126.095   1
  -3   2 -17 3655.98 190.163   1
  -3   2 -18 3661.24 201.832   1
  -3   2 -19 47.2025 59.5971   1
  -3   2 -20 429.007 89.9588   1
  -3   2 -21 277.561 70.8193   1
  -3   2 -22 438.260 81.4713   1
  -3   2 -23 648.777 100.260   1
   3  -3  13 301.526 102.048   1
   3  -3  12 201.287 77.7253   1
   3  -3  11 3551.17 171.586   1
   3  -3  10 3069.09 162.647   1
   3  -3   9 3912.28 175.072   1
  -3  -3  -9 3786.48 159.753   1
   3  -3   8 1691.75 128.884   1
  -3  -3  -8 1707.45 99.1157   1
  -3  -3  -7 1449.41 87.5223   1
   3  -3   7 1629.00 126.342   1
   3  -3   6 2500.65 165.948   1
  -3  -3  -6 2395.34 104.244   1
   3  -3   5 3153.82 209.483   1
  -3  -3  -5 3131.40 122.977   1
   3   3  -4 2610.26 316.829   1
   3   3  -3 2434.75 222.788   1
  -3  -3  -2 1971.93 240.651   1
   3   3  -2 2812.84 183.951   1
   3   3  -1 1589.62 123.084   1
   3   3   0 2723.48 146.409   1
   3   3   1 1377.57 101.549   1
   3   3   2 2799.06 136.227   1
   3   3   3 2509.14 130.425   1
   3   3   4 2785.43 132.563   1
   3   3   5 2825.52 127.524   1
  -3   3  -9 3577.79 210.899   1
  -3   3 -10 3215.59 188.906   1
  -3   3 -11 3392.98 189.713   1
  -3   3 -12 190.419 79.1144   1
  -3   3 -13 242.968 93.1807   1
  -3   3 -15 613.976 120.621   1
  -3   3 -16 335.409 97.2370   1
  -3   3 -17 117.937 86.7293   1
  -3   3 -18 206.983 83.5100   1
  -3   3 -19 91.6216 79.2789   1
  -3   3 -20 848.317 125.019   1
  -3   3 -21 135.782 76.7866   1
  -3   3 -22-47.3252 72.4729   1
   3  -4  16 832.475 250.232   1
   3  -4  15 1084.44 162.970   1
   3  -4  14 2835.18 209.505   1
   3  -4  13 1014.92 120.817   1
   3  -4  12 3428.59 195.282   1
   3  -4  11 5396.27 245.682   1
   3  -4  10 9463.91 317.311   1
   3  -4   9 1612.87 145.117   1
  -3  -4  -9 1872.57 142.792   1
   3  -4   8 6590.62 276.756   1
  -3  -4  -8 7024.26 234.047   1
  -3  -4  -7 2771.77 146.326   1
   3  -4   7 2714.01 187.314   1
   3   4  -7 2226.70 262.198   1
  -3  -4  -6 2578.48 134.561   1
   3  -4   6 2789.82 192.874   1
   3   4  -6 2430.84 216.039   1
   3  -4   5 2530.75 207.557   1
   3   4  -5 2198.17 191.404   1
  -3  -4  -5 2694.04 138.624   1
   3   4  -4 1422.98 142.038   1
  -3  -4  -4 1612.16 113.271   1
   3   4  -3 6061.34 258.322   1
  -3  -4  -3 6566.50 218.050   1
  -3  -4  -2 2728.77 170.050   1
   3   4  -2 2992.25 174.304   1
  -3  -4  -1 562.701 98.3895   1
   3   4  -1 602.152 91.3605   1
  -3  -4   0 1204.30 154.163   1
   3   4   0 1372.23 123.261   1
   3   4   1 564.078 88.1799   1
  -3  -4   1 694.648 240.089   1
   3   4   2 2928.97 170.007   1
   3   4   3 6198.04 237.215   1
   3   4   4 1426.71 124.902   1
   3   4   5 2671.69 167.741   1
  -3   4  -9 1646.93 185.078   1
  -3   4 -10 9926.50 371.800   1
  -3   4 -11 5744.02 266.016   1
  -3   4 -12 3147.91 205.599   1
  -3   4 -13 1066.79 145.469   1
  -3   4 -14 2783.25 218.685   1
  -3   4 -16 1051.14 151.569   1
  -3   4 -17 2089.68 213.191   1
  -3   4 -18 173.625 97.1246   1
  -3   4 -19 614.587 121.892   1
  -3   4 -20 275.292 105.670   1
  -3   4 -21 1045.71 141.796   1
  -3   4 -22 1131.84 145.567   1
   3  -5  19 342.192 549.556   1
   3  -5  18-138.886 220.825   1
   3  -5  17 681.123 162.067   1
   3  -5  16 874.673 158.970   1
   3  -5  15 363.806 117.039   1
   3  -5  14 2611.27 201.349   1
   3  -5  13 690.937 118.220   1
   3  -5  12 223.957 93.0597   1
   3  -5  11 3263.34 221.575   1
   3  -5  10 321.142 91.2514   1
   3   5 -10 343.509 112.466   1
  -3  -5 -10 112.070 126.954   1
   3  -5   9 8473.88 332.503   1
  -3  -5  -9 8435.54 309.050   1
   3   5  -9 7605.86 389.383   1
   3  -5   8 45.8783 79.6154   1
   3   5  -8 65.4581 82.3280   1
  -3  -5  -8 99.9176 71.5771   1
  -3  -5  -7 955.331 117.784   1
   3  -5   7 944.925 132.907   1
   3   5  -7 1016.46 154.013   1
  -3  -5  -6 1754.90 139.773   1
   3  -5   6 1723.90 177.309   1
   3   5  -6 1685.19 168.274   1
  -3  -5  -5 9637.75 311.777   1
   3  -5   5 9765.69 433.326   1
   3   5  -5 10201.6 380.543   1
   3   5  -4 586.189 99.3284   1
  -3  -5  -4 713.620 97.6464   1
   3   5  -3 1484.81 146.730   1
  -3  -5  -3 1637.35 132.072   1
  -3  -5  -2 1554.34 132.043   1
   3   5  -2 1689.04 156.159   1
  -3  -5  -1 1458.21 137.276   1
   3   5  -1 1341.60 145.635   1
   3   5   0 10650.5 359.356   1
  -3  -5   0 9951.08 343.741   1
   3   5   1 1145.28 131.483   1
   3   5   2 1625.23 147.187   1
  -3  -5   2 1570.06 180.667   1
   3   5   3 1353.02 137.571   1
  -3  -5   3 1313.85 244.060   1
  -3  -5   4 360.657 314.429   1
   3   5   4 585.101 91.0148   1
   3   5   5 10033.2 367.173   1
  -3   5 -10 101.937 96.2373   1
  -3   5 -11 3213.96 238.282   1
  -3   5 -12 174.229 104.603   1
  -3   5 -13 810.197 139.816   1
  -3   5 -14 2332.31 216.415   1
  -3   5 -15 128.310 93.6414   1
  -3   5 -16 1192.10 178.552   1
  -3   5 -17 706.371 143.594   1
  -3   5 -18-141.142 121.579   1
  -3   5 -19 126.045 110.598   1
  -3   5 -20 1484.98 209.390   1
  -3   5 -21 861.077 168.914   1
   3  -6  20-391.288 324.062   1
   3  -6  19 439.866 213.712   1
   3  -6  18 378.304 154.434   1
   3  -6  17 720.373 145.767   1
   3  -6  16 2046.35 190.606   1
   3  -6  15 461.446 119.161   1
   3  -6  14 245.685 120.153   1
   3  -6  13 339.402 100.625   1
   3   6 -13 283.354 126.819   1
   3  -6  12 247.587 105.379   1
   3   6 -12 462.813 140.776   1
   3  -6  11 572.419 121.187   1
   3   6 -11 379.897 139.214   1
  -3  -6 -10-160.437 194.502   1
   3  -6  10 144.121 106.118   1
   3   6 -10 31.1731 99.3393   1
   3  -6   9 2188.82 202.986   1
  -3  -6  -9 2154.51 190.891   1
   3   6  -9 1993.39 208.721   1
   3  -6   8 1583.40 179.743   1
  -3  -6  -8 1552.31 165.627   1
   3   6  -8 1475.35 180.517   1
  -3  -6  -7 1225.53 139.741   1
   3  -6   7 1105.60 164.985   1
   3   6  -7 1175.99 163.613   1
  -3  -6  -6 1140.77 139.083   1
   3  -6   6 1166.61 173.436   1
   3   6  -6 826.168 145.171   1
  -3  -6  -5 6808.87 291.501   1
   3  -6   5 7103.40 393.017   1
   3   6  -5 6373.73 320.122   1
  -3  -6  -4 3801.77 217.044   1
   3   6  -4 3706.41 256.470   1
   3   6  -3 16446.2 495.306   1
  -3  -6  -3 16571.7 439.137   1
  -3  -6  -2 440.511 91.3383   1
   3   6  -2 411.615 107.108   1
   3   6  -1 5618.69 285.684   1
  -3  -6  -1 5768.70 264.900   1
   3   6   0-98.5103 93.0600   1
  -3  -6   0 173.052 82.2701   1
   3   6   1 5867.07 290.420   1
  -3  -6   1 5436.78 271.046   1
   3   6   2 398.594 108.109   1
  -3  -6   2 320.832 99.8348   1
   3   6   3 16794.4 478.575   1
   3   6   4 3528.70 253.668   1
  -3  -6   5 5837.45 450.938   1
  -3  -6   6 906.820 345.270   1
  -3  -6   7 552.300 562.716   1
  -3   6 -10 184.417 119.327   1
  -3   6 -11 602.123 153.735   1
  -3   6 -12 431.786 131.637   1
  -3   6 -13 656.707 110.015   1
  -3   6 -14 1077.31 175.887   1
  -3   6 -15 532.135 153.308   1
  -3   6 -16 2091.78 211.194   1
  -3   6 -17 854.571 175.961   1
  -3   6 -18 343.438 149.892   1
  -3   6 -19 701.826 164.260   1
  -3   6 -20 33.1684 128.025   1
   3  -7  18 78.5163 122.276   1
   3  -7  17 250.243 107.001   1
   3  -7  16 1491.94 188.903   1
   3   7 -15 12.2592 114.742   1
   3  -7  14 25.8366 96.8329   1
   3   7 -14 66.7876 103.006   1
   3  -7  13 878.459 153.171   1
   3   7 -13 671.721 169.882   1
   3  -7  12 777.661 149.072   1
   3   7 -12 611.151 158.516   1
   3  -7  11 108.291 115.596   1
   3   7 -11 159.840 127.571   1
  -3  -7 -10 987.463 164.181   1
   3  -7  10 963.412 159.167   1
   3   7 -10 1077.47 179.279   1
  -3  -7  -9 911.079 148.992   1
   3   7  -9 771.504 162.033   1
   3  -7   9 820.423 152.445   1
   3  -7   8 2753.90 237.842   1
  -3  -7  -8 2691.69 217.841   1
   3   7  -8 2602.40 235.488   1
  -3  -7  -7 3478.17 241.769   1
   3  -7   7 3002.29 247.141   1
   3   7  -7 3361.24 256.151   1
  -3  -7  -6 3380.16 241.197   1
   3  -7   6 3537.72 288.483   1
  -3  -7  -5 1848.70 183.911   1
   3  -7   5 1738.63 217.435   1
   3   7  -5 1655.47 192.768   1
   3   7  -4 4601.23 284.083   1
  -3  -7  -4 4108.26 248.033   1
  -3  -7  -3 32.0753 80.2066   1
   3   7  -3 67.0675 107.551   1
   3   7  -2 2805.85 234.010   1
  -3  -7  -2 3062.42 219.652   1
   3   7  -1 1822.97 192.530   1
  -3  -7  -1 1742.48 172.914   1
  -3  -7   0 882.053 125.378   1
   3   7   0 843.702 152.199   1
   3   7   1 1939.12 200.482   1
  -3  -7   1 1748.02 170.510   1
   3   7   2 3044.43 239.443   1
  -3  -7   2 2864.86 224.526   1
  -3  -7   3 34.4597 77.3463   1
   3   7   3 193.241 111.714   1
   3   7   4 3960.66 285.578   1
  -3  -7   4 4432.47 304.046   1
  -3  -7   5 1688.15 202.172   1
  -3  -7   8 1542.23 432.025   1
  -3  -7   9 530.381 623.605   1
  -3   7 -10 729.572 202.985   1
  -3   7 -11 132.607 141.927   1
  -3   7 -12 547.376 156.248   1
  -3   7 -13 564.500 162.723   1
  -3   7 -14 7.32092 446.275   1
  -3   7 -15-23.3807 271.980   1
  -3   7 -16 1935.51 231.374   1
  -3   7 -17 406.145 156.148   1
  -3   7 -18 132.809 142.142   1
   3   8 -16 345.187 149.914   1
   3  -8  16 267.872 111.161   1
   3  -8  15 386.148 143.537   1
   3   8 -15 512.573 164.246   1
   3  -8  14 193.588 116.795   1
   3   8 -14 456.965 147.526   1
   3  -8  13 151.831 114.645   1
   3   8 -13 364.958 138.587   1
   3  -8  12 126.012 122.043   1
   3   8 -12 292.303 158.255   1
   3  -8  11-42.0713 113.836   1
   3   8 -11 3.08969 111.298   1
   3   8 -10 274.303 141.466   1
   3  -8  10 295.265 138.761   1
  -3  -8 -10 429.107 135.096   1
   3   8  -9 450.671 172.144   1
  -3  -8  -9 461.362 135.771   1
   3  -8   9 441.856 157.671   1
   3   8  -8 978.638 179.472   1
   3  -8   8 883.422 187.377   1
  -3  -8  -8 570.968 150.855   1
  -3  -8  -7 2084.43 214.218   1
   3  -8   7 2626.37 263.972   1
   3   8  -7 2010.84 238.277   1
   3   8  -6 1061.51 188.558   1
  -3  -8  -6 1256.64 168.419   1
   3  -8   6 1341.79 207.227   1
   3   8  -5 1765.62 217.265   1
  -3  -8  -5 1601.65 189.770   1
   3   8  -4 3375.99 284.061   1
  -3  -8  -4 2945.87 248.472   1
  -3  -8  -3 155.303 97.9407   1
   3   8  -3 110.434 118.104   1
  -3  -8  -2 798.638 140.056   1
   3   8  -2 741.474 158.844   1
   3   8  -1 1355.07 199.747   1
  -3  -8  -1 1444.72 169.590   1
  -3  -8   0 105.279 90.4048   1
   3   8   0 81.9186 114.895   1
  -3  -8   1 1040.02 150.135   1
   3   8   1 1266.84 155.239   1
   3   8   2 774.837 158.750   1
  -3  -8   2 784.352 145.382   1
   3   8   3 44.0476 116.988   1
  -3  -8   3 209.556 95.1810   1
   3   8   4 3130.62 326.998   1
  -3  -8   4 3443.01 265.829   1
  -3  -8   5 1238.96 185.563   1
  -3  -8   6 1300.60 202.955   1
  -3  -8   7 1977.01 244.623   1
  -3  -8   8 930.309 222.522   1
  -3  -8   9 353.358 243.204   1
  -3  -8  10 396.839 311.410   1
  -3   8 -10 322.489 174.397   1
  -3   8 -11 65.4556 153.599   1
  -3  -8  11 240.687 511.825   1
  -3   8 -12 181.184 158.851   1
  -3   8 -13 165.029 149.288   1
  -3   8 -14 303.831 158.538   1
  -3   8 -15 294.262 155.214   1
  -3   8 -16-8.30907 148.111   1
   3   9 -14-267.106 164.407   1
   3  -9  14 222.390 139.233   1
   3   9 -13 242.749 175.239   1
   3  -9  13 406.551 139.813   1
   3   9 -12 103.894 140.370   1
   3  -9  12 99.1979 107.694   1
   3   9 -11 187.552 153.063   1
   3  -9  11 318.623 119.168   1
   3   9 -10 652.256 183.151   1
  -3  -9 -10 738.705 156.056   1
   3  -9  10 780.079 190.213   1
   3  -9   9 53.5769 129.182   1
  -3  -9  -9 42.0232 106.232   1
   3   9  -9 206.681 137.268   1
   3  -9   8 617.626 180.531   1
   3   9  -8 402.700 142.316   1
  -3  -9  -7-80.7912 108.830   1
   3   9  -7 6.29286 119.993   1
  -3  -9  -6 61.0976 112.900   1
   3   9  -6 31.8867 131.528   1
   3  -9   6-1.83035 139.445   1
   3  -9   5 100.345 122.281   1
   3   9  -5 20.7830 137.683   1
  -3  -9  -5 92.4899 110.841   1
  -3  -9  -4-54.3298 112.295   1
   3   9  -4-69.8053 139.082   1
   3   9  -3 1033.15 194.839   1
  -3  -9  -3 850.970 158.631   1
   3   9  -2 90.5329 138.254   1
  -3  -9  -2 207.440 125.616   1
  -3  -9  -1 295.711 131.568   1
   3   9  -1 189.214 136.541   1
  -3  -9   0 56.9551 97.7950   1
   3   9   0 50.9708 139.708   1
  -3  -9   1 413.870 137.843   1
   3   9   1 276.715 141.196   1
  -3  -9   2 89.0928 115.605   1
   3   9   2 503.790 180.959   1
   3   9   3 1145.93 194.639   1
  -3  -9   3 1008.34 166.522   1
  -3  -9   4 208.587 120.455   1
   3   9   4 16.5082 142.200   1
  -3  -9   5 281.794 132.341   1
  -3  -9   6-15.3425 107.608   1
  -3  -9   7 39.8563 122.715   1
  -3  -9   8 370.374 156.676   1
  -3  -9   9 97.1014 158.000   1
  -3   9 -10 152.804 192.742   1
  -3  -9  10 261.453 201.333   1
  -3  -9  11 249.226 273.651   1
  -3   9 -11 228.991 181.211   1
  -3  -9  12-413.425 421.031   1
  -3   9 -12-181.424 177.988   1
  -3   9 -13 331.952 179.923   1
  -3  -9  13 623.188 651.090   1
  -3   9 -14 104.402 143.976   1
   3  10 -11 420.583 188.916   1
   3 -10  11-5.31891 140.749   1
  -3 -10 -10 89.3816 128.988   1
   3  10 -10 120.940 139.661   1
   3 -10  10 28.8724 140.088   1
   3 -10   9 519.752 181.750   1
   3  10  -9 447.149 174.047   1
  -3 -10  -9 599.534 157.867   1
   3 -10   8 13.5487 150.326   1
   3  10  -8 125.234 141.967   1
  -3 -10  -8 201.031 141.260   1
  -3 -10  -7 186.698 139.126   1
   3 -10   7 207.101 162.313   1
   3  10  -7 129.478 145.567   1
  -3 -10  -6 143.605 119.919   1
   3  10  -6 222.617 160.541   1
   3 -10   6-154.895 170.737   1
   3 -10   5 137.300 145.764   1
  -3 -10  -5 175.995 121.045   1
   3  10  -5 190.950 152.760   1
   3  10  -4 626.830 188.871   1
  -3 -10  -4 873.854 194.707   1
   3  10  -3 1078.58 310.624   1
  -3 -10  -3 468.543 147.010   1
  -3 -10  -2 210.821 140.403   1
   3  10  -2 97.8762 138.161   1
  -3 -10  -1 287.534 125.586   1
   3  10  -1 340.701 151.823   1
  -3 -10   0 788.854 172.924   1
   3  10   0 791.790 199.348   1
  -3 -10   1 392.247 146.212   1
   3  10   1 361.727 156.829   1
  -3 -10   2 132.519 174.432   1
   3  10   2 156.247 175.132   1
   3  10   3 151.771 164.500   1
  -3 -10   3 224.848 129.309   1
  -3 -10   4 994.326 188.572   1
  -3 -10   5 340.854 159.278   1
  -3 -10   6 150.332 120.746   1
  -3 -10   7 98.2601 118.567   1
  -3 -10   8 187.930 158.797   1
  -3 -10   9 346.364 190.573   1
  -3 -10  10 163.602 170.183   1
  -3  10 -11-65.2876 205.224   1
  -3 -10  11 669.948 245.551   1
   3  11  -6 785.308 209.427   1
  -3 -11  -6 644.209 180.458   1
   3 -11   6 690.534 206.926   1
   3  11  -5 827.707 221.460   1
  -3 -11  -5 1340.15 223.974   1
   3  11  -4-2.04107 173.591   1
  -3 -11  -4 95.6626 124.179   1
   3  11  -3 146.077 162.956   1
  -3 -11  -3 175.323 128.279   1
  -3 -11  -2 464.764 178.252   1
   3  11  -2 418.696 198.853   1
   3  11  -1 1389.90 247.939   1
  -3 -11  -1 673.312 167.022   1
  -3 -11   0 675.919 189.960   1
   3  11   0 511.677 205.068   1
  -3 -11   1 765.452 171.943   1
   3  11   1 721.753 221.904   1
  -3 -11   2 164.894 120.660   1
   3  11   2 308.855 184.734   1
  -3 -11   3 231.987 184.398   1
   3  11   3-37.1288 189.622   1
  -3 -11   4 219.136 150.583   1
  -3 -11   5 1004.99 192.851   1
  -3 -11   6 692.919 181.348   1
  -4   0 -15 506.947 68.0985   1
  -4   0 -16 1040.28 89.5663   1
  -4   0 -17 15.1363 54.2457   1
  -4   0 -18 1088.77 93.8087   1
  -4   0 -19 3137.98 149.535   1
  -4   0 -20 33.0376 47.2998   1
  -4  -1 -18 111.979 54.8693   1
  -4  -1 -17 169.570 52.4471   1
  -4  -1 -16 1037.63 73.1995   1
  -4  -1 -15 261.194 43.3845   1
   4  -1   7 1341.35 85.1606   1
  -4   1 -13 776.176 79.2069   1
  -4   1 -14 276.266 61.5946   1
  -4   1 -15 144.409 60.6616   1
  -4   1 -17 676.863 97.0701   1
  -4   1 -18 835.900 103.406   1
  -4   1 -19 134.796 76.2997   1
  -4   1 -20 283.309 83.8022   1
   4  -2  13 382.894 219.201   1
   4  -2  11 3961.68 155.025   1
   4  -2  10 1911.88 104.981   1
   4  -2   9 450.098 63.4625   1
   4  -2   8 93.0609 54.1443   1
   4  -2   7 1611.20 124.614   1
   4   2   2 1468.44 142.779   1
   4   2   3 3908.42 151.814   1
   4   2   4 186.440 41.1706   1
  -4   2 -13 2501.18 153.090   1
  -4   2 -14 1402.29 117.858   1
  -4   2 -15 337.359 76.5367   1
  -4   2 -16 739.304 105.641   1
  -4   2 -17 785.182 105.959   1
  -4   2 -18 137.212 82.2883   1
  -4   2 -19 1095.12 142.488   1
  -4   2 -20 204.826 95.9576   1
   4  -3  15 374.872 210.369   1
   4  -3  14 128.310 72.3741   1
  -4  -3 -13 893.943 78.1034   1
   4  -3  13 605.750 87.8359   1
   4  -3  12 1063.60 103.722   1
   4  -3  11 6596.77 221.739   1
   4  -3  10 6055.16 216.826   1
   4  -3   9 5322.49 210.522   1
   4  -3   8 722.801 100.785   1
   4  -3   7 5531.30 240.624   1
   4   3  -2 1274.54 186.449   1
   4   3  -1 1997.21 170.638   1
   4   3   0 1774.06 141.512   1
   4   3   1 1657.24 123.542   1
   4   3   2 1553.95 111.040   1
   4   3   3 2243.35 127.855   1
   4   3   4 1732.52 104.126   1
   4   3   5 2882.14 132.253   1
   4   3   6 1281.46 82.5357   1
  -4   3 -13 1062.05 130.471   1
  -4   3 -14 317.001 98.2615   1
  -4   3 -15 1186.32 128.729   1
  -4   3 -17-79.1976 85.0380   1
  -4   3 -18 0.91223 83.4498   1
   4  -4  17 106.959 193.632   1
   4  -4  16 98.3383 98.4136   1
   4  -4  15-368.079 119.055   1
   4  -4  14-31.2129 69.8884   1
  -4  -4 -13 90.7905 61.1824   1
   4  -4  13 124.343 71.4417   1
   4  -4  12 286.269 81.7199   1
  -4  -4 -12 233.349 63.8767   1
   4  -4  11 1824.50 134.699   1
  -4  -4 -11 1801.69 111.193   1
  -4  -4 -10 387.243 62.7563   1
   4  -4  10 241.246 79.3911   1
   4  -4   9 15.0478 70.6819   1
  -4  -4  -9 56.4053 49.1509   1
   4  -4   8 467.124 107.532   1
  -4  -4  -8 545.874 66.0871   1
  -4  -4  -7 32.5606 63.3508   1
   4  -4   6 121.170 104.042   1
  -4  -4  -6 140.303 60.5364   1
   4   4  -5 1345.24 188.435   1
  -4  -4  -4 281.568 198.870   1
   4   4  -4 834.600 131.239   1
   4   4  -3 5974.33 276.805   1
   4   4  -2 1205.18 133.734   1
   4   4  -1 4255.32 225.128   1
   4   4   0 367.834 85.4343   1
   4   4   1 4866.74 212.022   1
   4   4   2 1409.03 128.369   1
   4   4   3 5832.08 230.369   1
   4   4   4 868.464 93.2645   1
   4   4   5 1363.77 116.524   1
   4   4   6 199.486 69.8744   1
  -4   4 -13 1.02435 99.1684   1
  -4   4 -15 111.427 98.0289   1
  -4   4 -16 463.946 118.405   1
  -4   4 -17 507.305 123.315   1
  -4   4 -18 0.99746 90.7984   1
   4  -5  17-21.4002 101.413   1
   4  -5  16 591.515 117.590   1
   4  -5  15 88.0619 82.1703   1
   4  -5  14 361.048 89.7347   1
   4  -5  13 74.1783 71.0715   1
  -4  -5 -13 105.883 70.3174   1
   4  -5  12 601.972 114.129   1
  -4  -5 -12 669.568 100.534   1
  -4  -5 -11 555.290 89.4697   1
   4  -5  11 630.573 111.984   1
  -4  -5 -10 148.338 70.8019   1
   4  -5  10 193.459 90.9809   1
   4  -5   9 41.1014 85.5566   1
  -4  -5  -9-13.5949 61.9560   1
  -4  -5  -8 587.029 77.8836   1
   4   5  -8 332.578 115.470   1
   4  -5   8 598.353 120.079   1
  -4  -5  -7 405.051 71.4514   1
   4  -5   7 383.311 112.996   1
   4   5  -7 343.286 106.794   1
   4   5  -6 484.572 125.726   1
   4  -5   6 475.918 142.589   1
  -4  -5  -6 298.570 74.3393   1
   4   5  -5-6.92332 91.9543   1
  -4  -5  -5 186.011 75.1789   1
   4   5  -4 4028.77 241.916   1
   4   5  -3 1564.03 154.934   1
  -4  -5  -2 994.165 218.827   1
   4   5  -2 873.038 134.353   1
  -4  -5  -1 848.783 305.632   1
   4   5  -1 1193.73 138.260   1
   4   5   0 320.232 86.7259   1
   4   5   1 1083.54 130.915   1
   4   5   2 524.311 101.085   1
   4   5   3 1497.61 142.300   1
   4   5   4 3693.12 209.173   1
   4   5   5 85.8972 74.1718   1
   4   5   6 329.121 99.5825   1
  -4   5 -13 116.228 128.645   1
  -4   5 -14-42.3808 118.386   1
  -4   5 -15-72.4580 105.844   1
  -4   5 -16 413.205 121.680   1
  -4   5 -17 107.761 114.008   1
   4  -6  16 76.8959 86.0144   1
   4  -6  15 574.911 111.717   1
   4  -6  14 24.5249 79.3377   1
  -4  -6 -14 91.1578 84.9487   1
   4  -6  13 989.972 144.335   1
  -4  -6 -13 1235.79 137.704   1
   4  -6  12 221.707 105.517   1
  -4  -6 -12 496.326 112.384   1
  -4  -6 -11 215.074 68.3314   1
   4  -6  11 193.107 94.5972   1
   4   6 -10 485.042 127.539   1
   4  -6  10 638.692 129.687   1
  -4  -6 -10 361.554 92.7781   1
   4  -6   9 758.123 140.257   1
  -4  -6  -9 641.877 107.845   1
   4   6  -9 576.722 125.255   1
  -4  -6  -8 848.346 121.532   1
   4  -6   8 1230.40 170.406   1
   4   6  -8 951.504 153.339   1
  -4  -6  -7 54.6469 71.3323   1
   4  -6   7 73.8405 90.7316   1
   4   6  -7 131.176 98.8154   1
   4  -6   6 571.790 146.059   1
   4   6  -6 354.899 111.582   1
  -4  -6  -6 723.567 111.811   1
   4   6  -5 98.5867 123.551   1
  -4  -6  -5 332.241 91.2018   1
  -4  -6  -4 3608.88 204.311   1
   4   6  -4 3052.01 223.739   1
   4   6  -3 577.401 126.699   1
  -4  -6  -3 574.183 110.430   1
   4   6  -2 3854.32 247.248   1
   4   6  -1 1056.30 144.442   1
  -4  -6  -1 900.988 150.588   1
   4   6   0 647.024 121.390   1
  -4  -6   0 555.128 165.019   1
   4   6   1 904.071 141.433   1
  -4  -6   1 873.142 282.507   1
   4   6   2 3217.74 226.678   1
  -4  -6   2 2940.51 585.839   1
   4   6   3 602.945 118.139   1
   4   6   4 3455.82 213.696   1
   4   6   5 391.716 107.554   1
   4   6   6 595.960 143.879   1
  -4   6 -13 794.566 204.400   1
  -4   6 -14 248.185 136.240   1
  -4   6 -15 149.223 151.099   1
  -4   6 -16 62.6670 113.031   1
  -4  -7 -14 450.758 132.142   1
   4  -7  14 357.495 109.208   1
  -4  -7 -13 3.92533 80.0650   1
   4  -7  13 47.2049 94.6004   1
   4   7 -13 76.4128 117.399   1
   4  -7  12 701.132 149.729   1
   4   7 -12 703.782 156.590   1
  -4  -7 -12 881.793 133.044   1
  -4  -7 -11 227.318 97.0099   1
   4  -7  11 293.031 111.609   1
   4   7 -11 241.448 106.761   1
   4  -7  10 169.752 104.191   1
  -4  -7 -10 165.538 94.3109   1
   4   7 -10 234.551 118.793   1
   4  -7   9 490.190 144.001   1
  -4  -7  -9 505.866 116.139   1
   4   7  -9 431.226 142.613   1
  -4  -7  -8 1154.82 144.398   1
   4   7  -8 1224.31 178.636   1
  -4  -7  -7 1592.01 155.210   1
   4  -7   7 1996.47 231.060   1
   4   7  -6 177.091 107.169   1
  -4  -7  -6 335.674 92.7251   1
   4   7  -5 22.4153 95.8663   1
  -4  -7  -5 245.251 99.9813   1
   4   7  -4 230.305 130.593   1
  -4  -7  -4 128.897 81.9475   1
   4   7  -3 401.958 128.684   1
  -4  -7  -3 457.961 97.8633   1
   4   7  -2 354.146 127.553   1
  -4  -7  -2 380.007 104.599   1
   4   7  -1 600.147 126.007   1
  -4  -7  -1 535.529 113.961   1
  -4  -7   0 190.622 110.709   1
   4   7   0 256.313 110.679   1
   4   7   1 722.016 140.743   1
  -4  -7   1 622.221 156.478   1
   4   7   2 400.476 125.493   1
  -4  -7   2 110.774 138.776   1
  -4  -7   3 310.511 215.435   1
   4   7   3 463.138 120.545   1
  -4  -7   4-42.9253 305.530   1
   4   7   4 51.5991 98.7247   1
  -4  -7   5-846.878 600.728   1
   4   7   5 33.9894 99.3681   1
  -4   7 -14 294.795 167.349   1
   4  -8  12 316.544 140.631   1
  -4  -8 -12 284.722 108.183   1
   4   8 -12 241.558 133.781   1
  -4  -8 -11 190.104 107.409   1
   4  -8  11 120.072 119.811   1
   4   8 -11 45.7309 106.261   1
   4  -8  10 354.504 138.359   1
  -4  -8 -10 463.484 124.347   1
   4   8 -10 461.649 153.604   1
   4  -8   9 333.466 147.151   1
  -4  -8  -9 215.345 102.907   1
   4   8  -9 140.112 123.126   1
  -4  -8  -8 903.592 144.996   1
   4  -8   8 1176.16 192.919   1
   4   8  -8 1306.74 196.958   1
   4   8  -7 410.169 152.439   1
   4  -8   7 428.447 156.697   1
  -4  -8  -7 315.134 104.513   1
   4   8  -6-11.0336 106.200   1
  -4  -8  -6 72.7373 97.2938   1
   4   8  -5 1716.55 208.399   1
  -4  -8  -5 1683.14 173.370   1
  -4  -8  -4 170.794 99.9435   1
   4   8  -4 251.807 125.877   1
  -4  -8  -3-11.2178 137.144   1
   4   8  -3 99.2179 110.653   1
   4   8  -2 270.342 128.970   1
  -4  -8  -2 349.243 121.093   1
  -4  -8  -1 685.149 145.180   1
   4   8  -1 737.868 161.562   1
   4   8   0 188.521 123.550   1
  -4  -8   0 233.763 112.711   1
   4   8   1 609.223 154.656   1
  -4  -8   1 671.552 147.807   1
  -4  -8   2 387.536 137.675   1
   4   8   2 319.982 132.287   1
   4   8   3 217.815 127.228   1
  -4  -8   3 178.271 140.846   1
   4   8   4 169.497 125.561   1
  -4  -8   4 157.014 170.174   1
   4   8   5 1882.03 223.245   1
  -4  -8   5 1067.56 305.586   1
  -4  -8   6 27.4794 317.103   1
  -4  -8   7 222.876 578.794   1
  -4  -9  -9 1725.79 200.660   1
   4  -9   9 2253.54 272.300   1
   4   9  -9 1712.03 234.019   1
   4   9  -8-122.571 145.413   1
   4  -9   8 97.1294 132.173   1
  -4  -9  -8 25.7260 101.986   1
   4  -9   7 60.5356 125.853   1
   4   9  -7 51.3352 129.284   1
  -4  -9  -7-38.0470 112.618   1
   4   9  -6-49.9248 145.511   1
  -4  -9  -6 226.196 111.130   1
  -4  -9  -5 318.776 126.724   1
   4   9  -5 400.996 148.074   1
  -4  -9  -4 340.707 113.464   1
   4   9  -4 674.681 177.229   1
   4   9  -3 1479.35 216.360   1
  -4  -9  -3 1412.30 180.353   1
  -4  -9  -2 570.847 155.414   1
   4   9  -2 33.4002 136.682   1
   4   9  -1 491.104 146.800   1
  -4  -9  -1 562.765 149.887   1
   4   9   0 211.763 138.179   1
  -4  -9   0 387.278 138.883   1
   4   9   1 441.217 163.604   1
  -4  -9   1 484.768 132.533   1
  -4  -9   2-20.7204 115.508   1
  -4  -9   3 1292.24 232.765   1
   4   9   3 1385.00 188.748   1
  -4  -9   4 359.761 151.025   1
   4   9   4 288.762 159.760   1
  -4  -9   5 358.749 173.105   1
   4   9   5 318.919 152.488   1
  -4  -9   6-59.4150 174.521   1
  -4  -9   7 25.7014 259.328   1
  -4  -9   8-230.888 368.910   1
  -4  -9   9 1054.84 658.301   1
  -4 -10  -1 14.8515 128.001   1
   4  10  -1 15.1741 146.433   1
   4  10   0-157.525 150.045   1
  -4 -10   0 93.8481 117.789   1
   4  10   1-12.5674 144.044   1
  -4 -10   1 33.9825 121.006   1
   5  -1   8 1296.42 91.1423   1
   5  -2  13 607.924 91.3643   1
   5  -2  12 1065.68 80.6521   1
   5  -2  11 432.961 57.7714   1
   5  -2  10 53.8749 47.6248   1
   5  -2   9 264.554 62.2434   1
   5  -2   8 755.738 90.6082   1
   5   2   3 3111.15 194.975   1
   5   2   4 706.728 75.5428   1
   5   2   5 2425.87 111.738   1
   5   2   6 287.777 43.0070   1
   5  -3  15 93.3631 82.9958   1
   5  -3  14 278.522 68.5023   1
   5  -3  13 349.808 64.8629   1
   5  -3  12 287.121 67.2979   1
   5  -3  11 213.741 62.6188   1
   5  -3  10 1234.25 109.422   1
   5  -3   9 1333.93 120.170   1
   5  -3   8 14.8446 70.1523   1
   5   3   0 1160.36 130.844   1
   5   3   1 670.202 105.076   1
   5   3   2 744.967 96.0059   1
   5   3   3 368.670 77.0028   1
   5   3   4 1105.16 98.1766   1
   5   3   5 527.418 75.9002   1
   5   3   6 252.976 51.3748   1
   5   3   7 2147.55 103.891   1
   5  -4  14 129.046 74.3533   1
   5  -4  13 5.21683 57.3285   1
   5  -4  12 1143.30 116.832   1
   5  -4  11 917.231 110.196   1
   5  -4  10 951.938 119.203   1
   5  -4   9 108.817 81.8785   1
   5  -4   8 831.838 141.249   1
   5   4  -3 930.036 131.733   1
   5   4  -2 929.018 128.298   1
   5   4  -1 114.448 72.5671   1
   5   4   0 65.2285 72.2525   1
   5   4   1 70.4479 65.9631   1
   5   4   2 982.515 107.535   1
   5   4   3 1287.38 120.077   1
   5   4   4 258.359 76.1639   1
   5   4   5 172.252 58.8162   1
   5   4   6 711.819 86.8134   1
   5   4   7 408.116 76.9724   1
   5  -5  12 213.483 86.3144   1
  -5  -5 -12 292.437 68.5236   1
  -5  -5 -11 744.091 87.0681   1
   5  -5  11 455.946 106.841   1
   5  -5  10 128.593 88.0736   1
  -5  -5 -10 146.075 71.1504   1
   5  -5   9 983.368 140.827   1
  -5  -5  -9 950.597 113.330   1
   5  -5   8 1711.31 191.913   1
  -5  -5  -8 1356.60 182.221   1
  -5  -5  -7 475.725 245.576   1
   5   5  -6 1168.92 159.702   1
   5   5  -5 432.195 109.284   1
   5   5  -4 240.579 94.0115   1
   5   5  -3 135.118 86.0285   1
   5   5  -2 20.5119 93.5671   1
   5   5  -1 555.761 115.111   1
   5   5   0 191.970 90.1435   1
   5   5   1 470.184 101.633   1
   5   5   2-20.3334 74.9779   1
   5   5   3 54.0666 64.7190   1
   5   5   4 192.892 73.5644   1
   5   5   5 440.919 88.6619   1
   5   5   6 1082.85 126.153   1
   5   5   7 91.0366 79.6151   1
   5  -6  10 1.15640 102.029   1
  -5  -6 -10 275.126 83.2534   1
   5  -6   9-59.5768 97.9585   1
  -5  -6  -9 74.6459 73.7278   1
   5  -6   8 417.060 126.520   1
   5   6  -8 426.812 125.812   1
  -5  -6  -8 557.818 112.245   1
  -5  -6  -7 411.338 105.585   1
   5   6  -7 222.090 88.4029   1
  -5  -6  -6 524.425 136.766   1
   5   6  -6 396.999 111.453   1
  -5  -6  -5 284.598 170.866   1
   5   6  -5 351.739 114.154   1
  -5  -6  -4 468.664 270.159   1
   5   6  -4 313.736 110.785   1
   5   6  -3-20.0542 95.7472   1
   5   6  -2 147.009 92.7318   1
   5   6  -1 1300.01 161.626   1
   5   6   0 231.456 100.539   1
   5   6   1 894.379 130.832   1
   5   6   2 92.9677 76.6537   1
   5   6   3 144.292 87.8813   1
   5   6   4 288.143 94.6492   1
   5   6   5 308.742 91.1338   1
   5   6   6 681.065 132.474   1
   5   6   7 277.436 116.255   1
  -5  -7  -7 846.331 117.954   1
   5   7  -7 753.135 153.874   1
  -5  -7  -6 956.542 142.063   1
   5   7  -6 880.947 160.765   1
  -5  -7  -5 222.014 122.325   1
   5   7  -5 138.561 103.534   1
   5   7  -4 13.1127 93.5137   1
  -5  -7  -4 87.9165 106.634   1
   5   7  -3 240.469 109.513   1
  -5  -7  -3 641.373 191.272   1
   5   7  -2 29.8191 101.136   1
  -5  -7  -2 7.40448 213.443   1
   5   7  -1 318.011 124.036   1
  -5  -7  -1 40.7474 346.447   1
   5   7   0 211.569 110.999   1
   5   7   1 265.812 107.482   1
   5   7   2 238.247 114.686   1
   5   7   3 347.872 112.504   1
   5   7   4 52.6772 88.0023   1
   5   7   5 40.1023 88.6691   1
   5   7   6 585.730 136.562   1
   6   1   6 144.229 109.772   1
   6   2   3-103.458 117.998   1
   6   2   4 1081.40 117.055   1
   6   2   5 567.345 79.9825   1
   6   2   6 547.131 61.6827   1
   6   3   1-14.6056 76.2087   1
   6   3   2 71.5407 62.9697   1
   6   3   3-13.1197 64.4720   1
   6   3   4 80.5923 64.2191   1
   6   3   5 69.9562 63.7272   1
   0   0   0    0.00    0.00   0

TITL vida_c_p01 in P2(1)2(1)2(1)
REM P2(1)2(1)2(1) (#19 in standard setting)
CELL 0.28980   5.033134  10.395635  21.409435  90.0000  90.0000  90.0000
ZERR    4.00   0.000401   0.000647   0.002165   0.0000   0.0000   0.0000
LATT -1
SYMM -x+1/2,-y, z+1/2
SYMM -x, y+1/2,-z+1/2
SYMM  x+1/2,-y+1/2,-z
SFAC C H N O
UNIT 40.00 52.00 20.00 16.00
TREF
HKLF 4
END
;
_shelx_hkl_checksum                53068
_olex2_submission_special_instructions  'No special instructions were received'
_oxdiff_exptl_absorpt_empirical_details
;
Empirical correction (ABSPACK) includes:
- Absorption correction using spherical harmonics
- Frame scaling
;
_oxdiff_exptl_absorpt_empirical_full_max  4.913
_oxdiff_exptl_absorpt_empirical_full_min  0.525
